version 3
run NewReno-0-20260607-10:55:47-8708
attr configname NewReno
attr datetime 20260607-10:55:47
attr datetimef 20260607-105547
attr experiment NewReno
attr inifile omnetpp.ini
attr iterationvars ""
attr iterationvarsd ""
attr iterationvarsf ""
attr measurement ""
attr network tcp_con_control_analysis.TcpVariants
attr processid 8708
attr repetition 0
attr replication #0
attr resultdir results/NewReno
attr runnumber 0
attr seedset 0
config image-path ../inet4.5/images
config description "TCP NewReno test"
config result-dir results/NewReno
config **.sender.tcp.tcpAlgorithmClass "\"TcpNewReno\""
config network tcp_con_control_analysis.TcpVariants
config sim-time-limit 20s
config record-eventlog false
config **.vector-recording true
config **.scalar-recording true
config output-vector-precision 6
config *.eth[].typename EthernetInterface
config *.eth[].dataRate 100Mbps
config *.eth[].queue.typename DropTailQueue
config *.eth[].queue.frameCapacity 500
config **.sender.numApps 1
config **.sender.app[0].typename TcpSessionApp
config **.sender.app[0].localPort 1000
config **.sender.app[0].connectAddress "\"receiver\""
config **.sender.app[0].connectPort 1000
config **.sender.app[0].tOpen 0s
config **.sender.app[0].tSend 0s
config **.sender.app[0].sendBytes 100MiB
config **.sender.app[0].tClose -1s
config **.receiver.numApps 1
config **.receiver.app[0].typename TcpSinkApp
config **.receiver.app[0].localPort 1000
config **.trafficGen.numApps 1
config **.trafficGen.app[0].typename TcpSessionApp
config **.trafficGen.app[0].localPort 2000
config **.trafficGen.app[0].connectAddress "\"receiver\""
config **.trafficGen.app[0].connectPort 2000
config **.trafficGen.app[0].tOpen 0s
config **.trafficGen.app[0].tSend 0s
config **.trafficGen.app[0].sendBytes 50MiB
config **.trafficGen.app[0].tClose -1s
config **.sender.hasTcp true
config **.sender.tcp.typename Tcp
config **.receiver.hasTcp true
config **.receiver.tcp.typename Tcp
config **.tcp.recordStatistics true
config **.tcp.mss 1460
config **.throughput:vector.record vector
config **.throughput:scalar.record avg
config **.endToEndDelay:vector.record vector
config **.endToEndDelay:scalar.record avg
config **.packetLoss:vector.record vector
config **.packetLoss:scalar.record sum
config **.cwnd:vector.record vector
config **.cwnd:scalar.record avg
config **.rtt:vector.record vector
config **.rtt:scalar.record avg
config **.sender.tcp.sentData:vector.record vector
config **.sender.tcp.rcvdData:vector.record vector
config **.sender.tcp.cwnd:vector.record vector
config **.sender.tcp.rtt:vector.record vector
config **.sender.tcp.packetLoss:vector.record vector
config **.sender.tcp.sentData:scalar.record sum
config **.sender.tcp.rcvdData:scalar.record sum
config **.sender.tcp.cwnd:scalar.record avg
config **.sender.tcp.rtt:scalar.record avg
config **.sender.tcp.packetLoss:scalar.record sum
config **.receiver.tcp.sentData:vector.record vector
config **.receiver.tcp.rcvdData:vector.record vector
config **.receiver.tcp.packetLoss:vector.record vector
config **.receiver.tcp.sentData:scalar.record sum
config **.receiver.tcp.rcvdData:scalar.record sum
config **.receiver.tcp.packetLoss:scalar.record sum

par TcpVariants.sender.ethg$o[0].channel typename "\"ned.DatarateChannel\""
par TcpVariants.sender.ethg$o[0].channel disabled false
attr mutable ""
par TcpVariants.sender.ethg$o[0].channel delay 0.01s
attr mutable ""
attr unit s
par TcpVariants.sender.ethg$o[0].channel datarate 1e+08bps
attr mutable ""
attr unit bps
par TcpVariants.sender.ethg$o[0].channel ber 0
attr mutable ""
par TcpVariants.sender.ethg$o[0].channel per 0
attr mutable ""
par TcpVariants.router.ethg$o[0].channel typename "\"ned.DatarateChannel\""
par TcpVariants.router.ethg$o[0].channel disabled false
attr mutable ""
par TcpVariants.router.ethg$o[0].channel delay 0.01s
attr mutable ""
attr unit s
par TcpVariants.router.ethg$o[0].channel datarate 1e+08bps
attr mutable ""
attr unit bps
par TcpVariants.router.ethg$o[0].channel ber 0
attr mutable ""
par TcpVariants.router.ethg$o[0].channel per 0
attr mutable ""
par TcpVariants.router.ethg$o[1].channel typename "\"ned.DatarateChannel\""
par TcpVariants.router.ethg$o[1].channel disabled false
attr mutable ""
par TcpVariants.router.ethg$o[1].channel delay 0.01s
attr mutable ""
attr unit s
par TcpVariants.router.ethg$o[1].channel datarate 1e+08bps
attr mutable ""
attr unit bps
par TcpVariants.router.ethg$o[1].channel ber 0
attr mutable ""
par TcpVariants.router.ethg$o[1].channel per 0
attr mutable ""
par TcpVariants.receiver.ethg$o[0].channel typename "\"ned.DatarateChannel\""
par TcpVariants.receiver.ethg$o[0].channel disabled false
attr mutable ""
par TcpVariants.receiver.ethg$o[0].channel delay 0.01s
attr mutable ""
attr unit s
par TcpVariants.receiver.ethg$o[0].channel datarate 1e+08bps
attr mutable ""
attr unit bps
par TcpVariants.receiver.ethg$o[0].channel ber 0
attr mutable ""
par TcpVariants.receiver.ethg$o[0].channel per 0
attr mutable ""
par TcpVariants.trafficGen.ethg$o[0].channel typename "\"ned.DatarateChannel\""
par TcpVariants.trafficGen.ethg$o[0].channel disabled false
attr mutable ""
par TcpVariants.trafficGen.ethg$o[0].channel delay 0.01s
attr mutable ""
attr unit s
par TcpVariants.trafficGen.ethg$o[0].channel datarate 1e+08bps
attr mutable ""
attr unit bps
par TcpVariants.trafficGen.ethg$o[0].channel ber 0
attr mutable ""
par TcpVariants.trafficGen.ethg$o[0].channel per 0
attr mutable ""
par TcpVariants.router.ethg$o[2].channel typename "\"ned.DatarateChannel\""
par TcpVariants.router.ethg$o[2].channel disabled false
attr mutable ""
par TcpVariants.router.ethg$o[2].channel delay 0.01s
attr mutable ""
attr unit s
par TcpVariants.router.ethg$o[2].channel datarate 1e+08bps
attr mutable ""
attr unit bps
par TcpVariants.router.ethg$o[2].channel ber 0
attr mutable ""
par TcpVariants.router.ethg$o[2].channel per 0
attr mutable ""
par TcpVariants.configurator typename "\"inet.networklayer.configurator.ipv4.Ipv4NetworkConfigurator\""
par TcpVariants.configurator minLinkWeight 0.001
par TcpVariants.configurator configureIsolatedNetworksSeparatly false
par TcpVariants.configurator config "<config>...</config> at content:1"
par TcpVariants.configurator assignAddresses true
par TcpVariants.configurator assignUniqueAddresses true
par TcpVariants.configurator assignDisjunctSubnetAddresses true
par TcpVariants.configurator addStaticRoutes true
par TcpVariants.configurator addDefaultRoutes true
par TcpVariants.configurator addSubnetRoutes true
par TcpVariants.configurator addDirectRoutes true
par TcpVariants.configurator optimizeRoutes true
par TcpVariants.configurator dumpTopology false
par TcpVariants.configurator dumpLinks false
par TcpVariants.configurator dumpAddresses false
par TcpVariants.configurator dumpRoutes false
par TcpVariants.configurator dumpConfig "\"\""
par TcpVariants.sender.ethg$i[0].channel typename "\"ned.IdealChannel\""
par TcpVariants.sender.eth[0].phys$o.channel typename "\"ned.IdealChannel\""
par TcpVariants.sender.interfaceTable typename "\"inet.networklayer.common.InterfaceTable\""
par TcpVariants.sender.interfaceTable displayAddresses false
par TcpVariants.sender.cb typename "\"inet.common.MessageDispatcher\""
par TcpVariants.sender.cb displayStringTextFormat "\"processed %p pk (%l)\""
par TcpVariants.sender.cb forwardServiceRegistration true
par TcpVariants.sender.cb forwardProtocolRegistration true
par TcpVariants.sender.bl typename "\"inet.common.MessageDispatcher\""
par TcpVariants.sender.bl displayStringTextFormat "\"processed %p pk (%l)\""
par TcpVariants.sender.bl forwardServiceRegistration true
par TcpVariants.sender.bl forwardProtocolRegistration true
par TcpVariants.sender.ethernet typename "\"inet.linklayer.ethernet.basic.EthernetEncapsulation\""
par TcpVariants.sender.ethernet registerProtocol true
par TcpVariants.sender.ethernet interfaceTableModule "\"TcpVariants.sender.interfaceTable\""
par TcpVariants.sender.ethernet fcsMode "\"declared\""
attr enum declared,computed
par TcpVariants.sender.ethernet stopOperationExtraTime -1s
attr unit s
par TcpVariants.sender.ethernet stopOperationTimeout 2s
attr unit s
scalar TcpVariants.sender.ethernet decapPk:count 6877
attr interpolationmode none
attr recordingmode count
attr source decapPk
attr title "packets decapsulated, count"
scalar TcpVariants.sender.ethernet decapPk:sum(packetBytes) 316342
attr interpolationmode none
attr recordingmode sum(packetBytes)
attr source decapPk
attr title "packets decapsulated, sum(packetBytes)"
scalar TcpVariants.sender.ethernet encapPk:count 6892
attr interpolationmode none
attr recordingmode count
attr source encapPk
attr title "packets encapsulated, count"
scalar TcpVariants.sender.ethernet encapPk:sum(packetBytes) 10333612
attr interpolationmode none
attr recordingmode sum(packetBytes)
attr source encapPk
attr title "packets encapsulated, sum(packetBytes)"
scalar TcpVariants.sender.ethernet pauseSent:count 0
attr recordingmode count
attr title "pause sent, count"
scalar TcpVariants.sender.ethernet pauseSent:sum 0
attr recordingmode sum
attr title "pause sent, sum"
par TcpVariants.sender.li typename "\"inet.common.MessageDispatcher\""
par TcpVariants.sender.li displayStringTextFormat "\"processed %p pk (%l)\""
par TcpVariants.sender.li forwardServiceRegistration true
par TcpVariants.sender.li forwardProtocolRegistration true
par TcpVariants.sender.lo[0].upperLayerIn.channel typename "\"ned.IdealChannel\""
par TcpVariants.sender.lo[0].lo.upperLayerOut.channel typename "\"ned.IdealChannel\""
par TcpVariants.sender.lo[0].lo typename "\"inet.linklayer.loopback.Loopback\""
par TcpVariants.sender.lo[0].lo interfaceTableModule "\"TcpVariants.sender.interfaceTable\""
par TcpVariants.sender.lo[0].lo mtu 4470B
attr unit B
scalar TcpVariants.sender.lo[0].lo rcvdPkFromHl:count 0
attr interpolationmode none
attr recordingmode count
attr source packetReceivedFromUpper
attr title "packets received from higher layer, count"
scalar TcpVariants.sender.lo[0].lo rcvdPkFromHl:sum(packetBytes) 0
attr interpolationmode none
attr recordingmode sum(packetBytes)
attr source packetReceivedFromUpper
attr title "packets received from higher layer, sum(packetBytes)"
scalar TcpVariants.sender.lo[0].lo passedUpPk:count 0
attr interpolationmode none
attr recordingmode count
attr source packetSentToUpper
attr title "packets passed to higher layer, count"
scalar TcpVariants.sender.lo[0].lo passedUpPk:sum(packetBytes) 0
attr interpolationmode none
attr recordingmode sum(packetBytes)
attr source packetSentToUpper
attr title "packets passed to higher layer, sum(packetBytes)"
par TcpVariants.sender.lo[0] typename "\"inet.linklayer.loopback.LoopbackInterface\""
par TcpVariants.sender.lo[0] displayStringTextFormat "\"%a (%i)\\n%m\""
par TcpVariants.sender.lo[0] recordPcap false
par TcpVariants.sender.lo[0] numPcapRecorders 0
par TcpVariants.sender.lo[0] interfaceTableModule "\"TcpVariants.sender.interfaceTable\""
scalar TcpVariants.sender.lo[0] packetDropInterfaceDown:count 0
attr interpolationmode none
attr recordingmode count
attr source packetDropReasonIsInterfaceDown(packetDropped)
attr title "packet drops: interface down, count"
scalar TcpVariants.sender.lo[0] packetDropInterfaceDown:sum(packetBytes) 0
attr interpolationmode none
attr recordingmode sum(packetBytes)
attr source packetDropReasonIsInterfaceDown(packetDropped)
attr title "packet drops: interface down, sum(packetBytes)"
scalar TcpVariants.sender.lo[0] packetDropNoCarrier:count 0
attr interpolationmode none
attr recordingmode count
attr source packetDropReasonIsNoCarrier(packetDropped)
attr title "packet drops: no carrier, count"
scalar TcpVariants.sender.lo[0] packetDropNoCarrier:sum(packetBytes) 0
attr interpolationmode none
attr recordingmode sum(packetBytes)
attr source packetDropReasonIsNoCarrier(packetDropped)
attr title "packet drops: no carrier, sum(packetBytes)"
par TcpVariants.sender.eth[0].mac.phys$o.channel typename "\"ned.IdealChannel\""
par TcpVariants.sender.eth[0].phys$i.channel typename "\"ned.IdealChannel\""
par TcpVariants.sender.eth[0].upperLayerIn.channel typename "\"ned.IdealChannel\""
par TcpVariants.sender.eth[0].mac.upperLayerOut.channel typename "\"ned.IdealChannel\""
par TcpVariants.sender.eth[0].queue typename "\"inet.linklayer.ethernet.common.EthernetQueue\""
par TcpVariants.sender.eth[0].queue displayStringTextFormat "\"contains %p pk (%l) pushed %u\\npulled %o removed %r dropped %d\""
par TcpVariants.sender.eth[0].queue packetCapacity 1000
par TcpVariants.sender.eth[0].queue dataCapacity -1b
attr unit b
par TcpVariants.sender.eth[0].queue dropperClass "\"inet::queueing::PacketAtCollectionEndDropper\""
par TcpVariants.sender.eth[0].queue comparatorClass "\"inet::EthernetFrameTypeComparator\""
par TcpVariants.sender.eth[0].queue bufferModule "\"\""
scalar TcpVariants.sender.eth[0].queue queueLength:last 0
attr autoWarmupFilter false
attr interpolationmode sample-hold
attr recordingmode last
attr source "warmup(atomic(constant0(packetPushEnded) + count(packetPushStarted) - count(packetPulled) - count(packetRemoved) - count(packetDropped)))"
attr title "queue length, last"
attr unit pk
scalar TcpVariants.sender.eth[0].queue queueLength:max 6
attr autoWarmupFilter false
attr interpolationmode sample-hold
attr recordingmode max
attr source "warmup(atomic(constant0(packetPushEnded) + count(packetPushStarted) - count(packetPulled) - count(packetRemoved) - count(packetDropped)))"
attr title "queue length, max"
attr unit pk
scalar TcpVariants.sender.eth[0].queue queueLength:timeavg 0.000424824
attr autoWarmupFilter false
attr interpolationmode sample-hold
attr recordingmode timeavg
attr source "warmup(atomic(constant0(packetPushEnded) + count(packetPushStarted) - count(packetPulled) - count(packetRemoved) - count(packetDropped)))"
attr title "queue length, timeavg"
attr unit pk
scalar TcpVariants.sender.eth[0].queue queueBitLength:last 0
attr autoWarmupFilter false
attr interpolationmode sample-hold
attr recordingmode last
attr source "warmup(atomic(constant0(packetPushEnded) + sum(packetLength(packetPushStarted)) - sum(packetLength(packetPulled)) - sum(packetLength(packetRemoved)) - sum(packetLength(packetDropped))))"
attr title "queue bit length, last"
attr unit b
scalar TcpVariants.sender.eth[0].queue queueBitLength:max 72864
attr autoWarmupFilter false
attr interpolationmode sample-hold
attr recordingmode max
attr source "warmup(atomic(constant0(packetPushEnded) + sum(packetLength(packetPushStarted)) - sum(packetLength(packetPulled)) - sum(packetLength(packetRemoved)) - sum(packetLength(packetDropped))))"
attr title "queue bit length, max"
attr unit b
scalar TcpVariants.sender.eth[0].queue queueBitLength:timeavg 5.159062656
attr autoWarmupFilter false
attr interpolationmode sample-hold
attr recordingmode timeavg
attr source "warmup(atomic(constant0(packetPushEnded) + sum(packetLength(packetPushStarted)) - sum(packetLength(packetPulled)) - sum(packetLength(packetRemoved)) - sum(packetLength(packetDropped))))"
attr title "queue bit length, timeavg"
attr unit b
statistic TcpVariants.sender.eth[0].queue queueingTime:histogram
field count 6892
field mean 1.2328032501451e-06
field stddev 2.427864850595e-05
field min 0
field max 0.00073824
field sum 0.00849648
field sqrsum 4.0723935488e-06
attr interpolationmode none
attr recordingmode histogram
attr source queueingTime(packetPulled)
attr title "queueing times"
attr unit s
bin	-inf	0
bin	0	6868
bin	2e-05	0
bin	4e-05	0
bin	6e-05	0
bin	8e-05	0
bin	0.0001	0
bin	0.00012	7
bin	0.00014	0
bin	0.00016	0
bin	0.00018	0
bin	0.0002	0
bin	0.00022	0
bin	0.00024	5
bin	0.00026	0
bin	0.00028	0
bin	0.0003	0
bin	0.00032	0
bin	0.00034	0
bin	0.00036	4
bin	0.00038	0
bin	0.0004	0
bin	0.00042	0
bin	0.00044	0
bin	0.00046	0
bin	0.00048	3
bin	0.0005	0
bin	0.00052	0
bin	0.00054	0
bin	0.00056	0
bin	0.00058	0
bin	0.0006	2
bin	0.00062	0
bin	0.00064	0
bin	0.00066	0
bin	0.00068	0
bin	0.0007	0
bin	0.00072	3
bin	0.00074	0
bin	0.00076	0
bin	0.00078	0
bin	0.0008	0
bin	0.00082	0
bin	0.00084	0
bin	0.00086	0
bin	0.00088	0
bin	0.0009	0
bin	0.00092	0
bin	0.00094	0
scalar TcpVariants.sender.eth[0].queue outgoingPackets:count 6892
attr recordingmode count
attr source packetPulled
attr title "outgoing packets, count"
attr unit pk
scalar TcpVariants.sender.eth[0].queue outgoingPacketLengths:sum 83661344
attr interpolationmode none
attr recordingmode sum
attr source packetLength(packetPulled)
attr title "outgoing packet lengths, sum"
attr unit b
statistic TcpVariants.sender.eth[0].queue outgoingPacketLengths:histogram
field count 6892
field mean 12138.906558328
field stddev 244.09844066207
field min 368
field max 12144
field sum 83661344
field sqrsum 1015967831040
attr interpolationmode none
attr recordingmode histogram
attr source packetLength(packetPulled)
attr title "outgoing packet lengths"
attr unit b
bin	-inf	0
bin	0	0
bin	200	1
bin	400	2
bin	600	0
bin	800	0
bin	1000	0
bin	1200	0
bin	1400	0
bin	1600	0
bin	1800	0
bin	2000	0
bin	2200	0
bin	2400	0
bin	2600	0
bin	2800	0
bin	3000	0
bin	3200	0
bin	3400	0
bin	3600	0
bin	3800	0
bin	4000	0
bin	4200	0
bin	4400	0
bin	4600	0
bin	4800	0
bin	5000	0
bin	5200	0
bin	5400	0
bin	5600	0
bin	5800	0
bin	6000	0
bin	6200	0
bin	6400	0
bin	6600	0
bin	6800	0
bin	7000	0
bin	7200	0
bin	7400	0
bin	7600	0
bin	7800	0
bin	8000	0
bin	8200	0
bin	8400	0
bin	8600	0
bin	8800	0
bin	9000	0
bin	9200	0
bin	9400	0
bin	9600	0
bin	9800	0
bin	10000	0
bin	10200	0
bin	10400	0
bin	10600	0
bin	10800	0
bin	11000	0
bin	11200	0
bin	11400	0
bin	11600	0
bin	11800	0
bin	12000	6889
bin	12200	0
bin	12400	0
bin	12600	0
bin	12800	0
bin	13000	0
bin	13200	0
bin	13400	0
bin	13600	0
bin	13800	0
bin	14000	0
bin	14200	0
bin	14400	0
bin	14600	0
bin	14800	0
bin	15000	0
bin	15200	0
statistic TcpVariants.sender.eth[0].queue flowQueueingTime:histogram
field count 0
field mean nan
field stddev nan
field min nan
field max nan
field sum 0
field sqrsum 0
attr interpolationmode none
attr recordingmode histogram
attr source queueingTime(demuxFlow(packetPulled))
attr title "flow queueing times"
attr unit s
bin	-inf	0
bin	0	0
bin	1	0
scalar TcpVariants.sender.eth[0].queue incomingPackets:count 6892
attr recordingmode count
attr source packetPushStarted
attr title "incoming packets, count"
attr unit pk
scalar TcpVariants.sender.eth[0].queue incomingPacketLengths:sum 83661344
attr interpolationmode none
attr recordingmode sum
attr source packetLength(packetPushStarted)
attr title "incoming packet lengths, sum"
attr unit b
statistic TcpVariants.sender.eth[0].queue incomingPacketLengths:histogram
field count 6892
field mean 12138.906558328
field stddev 244.09844066207
field min 368
field max 12144
field sum 83661344
field sqrsum 1015967831040
attr interpolationmode none
attr recordingmode histogram
attr source packetLength(packetPushStarted)
attr title "incoming packet lengths"
attr unit b
bin	-inf	0
bin	0	0
bin	200	1
bin	400	2
bin	600	0
bin	800	0
bin	1000	0
bin	1200	0
bin	1400	0
bin	1600	0
bin	1800	0
bin	2000	0
bin	2200	0
bin	2400	0
bin	2600	0
bin	2800	0
bin	3000	0
bin	3200	0
bin	3400	0
bin	3600	0
bin	3800	0
bin	4000	0
bin	4200	0
bin	4400	0
bin	4600	0
bin	4800	0
bin	5000	0
bin	5200	0
bin	5400	0
bin	5600	0
bin	5800	0
bin	6000	0
bin	6200	0
bin	6400	0
bin	6600	0
bin	6800	0
bin	7000	0
bin	7200	0
bin	7400	0
bin	7600	0
bin	7800	0
bin	8000	0
bin	8200	0
bin	8400	0
bin	8600	0
bin	8800	0
bin	9000	0
bin	9200	0
bin	9400	0
bin	9600	0
bin	9800	0
bin	10000	0
bin	10200	0
bin	10400	0
bin	10600	0
bin	10800	0
bin	11000	0
bin	11200	0
bin	11400	0
bin	11600	0
bin	11800	0
bin	12000	6889
bin	12200	0
bin	12400	0
bin	12600	0
bin	12800	0
bin	13000	0
bin	13200	0
bin	13400	0
bin	13600	0
bin	13800	0
bin	14000	0
bin	14200	0
bin	14400	0
bin	14600	0
bin	14800	0
bin	15000	0
bin	15200	0
scalar TcpVariants.sender.eth[0].queue droppedPacketsQueueOverflow:count 0
attr interpolationmode none
attr recordingmode count
attr source packetDropReasonIsQueueOverflow(packetDropped)
attr title "dropped packets: queue overflow, count"
attr unit pk
scalar TcpVariants.sender.eth[0].queue droppedPacketLengthsQueueOverflow:sum 0
attr interpolationmode none
attr recordingmode sum
attr source packetLength(packetDropReasonIsQueueOverflow(packetDropped))
attr title "dropped packet lengths: queue overflow, sum"
attr unit b
par TcpVariants.sender.eth[0].mac typename "\"inet.linklayer.ethernet.basic.EthernetMac\""
par TcpVariants.sender.eth[0].mac interfaceTableModule "\"TcpVariants.sender.interfaceTable\""
par TcpVariants.sender.eth[0].mac displayStringTextFormat "\"rate: %b\\nsent: %s, rcvd: %r\\nqueue: %q, drop: %d\""
par TcpVariants.sender.eth[0].mac sendRawBytes false
par TcpVariants.sender.eth[0].mac promiscuous false
par TcpVariants.sender.eth[0].mac duplexMode true
par TcpVariants.sender.eth[0].mac mtu 1500B
attr unit B
par TcpVariants.sender.eth[0].mac fcsMode "\"declared\""
attr enum declared,computed
par TcpVariants.sender.eth[0].mac stopOperationExtraTime -1s
attr unit s
par TcpVariants.sender.eth[0].mac stopOperationTimeout 2s
attr unit s
scalar TcpVariants.sender.eth[0].mac "simulated time" 20
scalar TcpVariants.sender.eth[0].mac full-duplex 1
scalar TcpVariants.sender.eth[0].mac "frames/sec sent" 344.6
scalar TcpVariants.sender.eth[0].mac "frames/sec rcvd" 343.85
scalar TcpVariants.sender.eth[0].mac "bits/sec sent" 4183077.6
scalar TcpVariants.sender.eth[0].mac "bits/sec rcvd" 176051.2
scalar TcpVariants.sender.eth[0].mac "rx channel idle (%)" 99.8019424
scalar TcpVariants.sender.eth[0].mac "rx channel utilization (%)" 0.1980576
scalar TcpVariants.sender.eth[0].mac txPk:count 6892
attr interpolationmode none
attr recordingmode count
attr source packetSentToLower
attr title "packets transmitted, count"
scalar TcpVariants.sender.eth[0].mac txPk:sum(packetBytes) 10457694
attr interpolationmode none
attr recordingmode sum(packetBytes)
attr source packetSentToLower
attr title "packets transmitted, sum(packetBytes)"
scalar TcpVariants.sender.eth[0].mac packetReceivedFromUpper:count 6892
attr interpolationmode none
attr recordingmode count
attr source packetReceivedFromUpper
attr title "packet bytes from higher layer, count"
scalar TcpVariants.sender.eth[0].mac packetReceivedFromUpper:sum(packetBytes) 10457668
attr interpolationmode none
attr recordingmode sum(packetBytes)
attr source packetReceivedFromUpper
attr title "packet bytes from higher layer, sum(packetBytes)"
scalar TcpVariants.sender.eth[0].mac passedUpPk:count 6877
attr interpolationmode none
attr recordingmode count
attr source packetSentToUpper
attr title "packets passed to higher layer, count"
scalar TcpVariants.sender.eth[0].mac passedUpPk:sum(packetBytes) 440128
attr interpolationmode none
attr recordingmode sum(packetBytes)
attr source packetSentToUpper
attr title "packets passed to higher layer, sum(packetBytes)"
scalar TcpVariants.sender.eth[0].mac packetDropIncorrectlyReceived:count 0
attr interpolationmode none
attr recordingmode count
attr source packetDropReasonIsIncorrectlyReceived(packetDropped)
attr title "packet drop: incorrectly received, count"
scalar TcpVariants.sender.eth[0].mac packetDropIncorrectlyReceived:sum(packetBytes) 0
attr interpolationmode none
attr recordingmode sum(packetBytes)
attr source packetDropReasonIsIncorrectlyReceived(packetDropped)
attr title "packet drop: incorrectly received, sum(packetBytes)"
scalar TcpVariants.sender.eth[0].mac packetDropInterfaceDown:count 0
attr interpolationmode none
attr recordingmode count
attr source packetDropReasonIsInterfaceDown(packetDropped)
attr title "packet drop: interface down, count"
scalar TcpVariants.sender.eth[0].mac packetDropInterfaceDown:sum(packetBytes) 0
attr interpolationmode none
attr recordingmode sum(packetBytes)
attr source packetDropReasonIsInterfaceDown(packetDropped)
attr title "packet drop: interface down, sum(packetBytes)"
scalar TcpVariants.sender.eth[0].mac packetDropNotAddressedToUs:count 0
attr interpolationmode none
attr recordingmode count
attr source packetDropReasonIsNotAddressedToUs(packetDropped)
attr title "packet drop: not addressed to us, count"
scalar TcpVariants.sender.eth[0].mac packetDropNotAddressedToUs:sum(packetBytes) 0
attr interpolationmode none
attr recordingmode sum(packetBytes)
attr source packetDropReasonIsNotAddressedToUs(packetDropped)
attr title "packet drop: not addressed to us, sum(packetBytes)"
scalar TcpVariants.sender.eth[0].mac rxPausePkUnits:count 0
attr interpolationmode none
attr recordingmode count
attr title "pause units received, count"
scalar TcpVariants.sender.eth[0].mac rxPausePkUnits:sum 0
attr interpolationmode none
attr recordingmode sum
attr title "pause units received, sum"
scalar TcpVariants.sender.eth[0].mac txPausePkUnits:count 0
attr interpolationmode none
attr recordingmode count
attr title "pause units sent, count"
scalar TcpVariants.sender.eth[0].mac txPausePkUnits:sum 0
attr interpolationmode none
attr recordingmode sum
attr title "pause units sent, sum"
scalar TcpVariants.sender.eth[0].mac rxPkOk:count 6877
attr interpolationmode none
attr recordingmode count
attr source rxPkOk
attr title "packets received OK, count"
scalar TcpVariants.sender.eth[0].mac rxPkOk:sum(packetBytes) 440128
attr interpolationmode none
attr recordingmode sum(packetBytes)
attr source rxPkOk
attr title "packets received OK, sum(packetBytes)"
par TcpVariants.sender.eth[0] typename "\"inet.linklayer.ethernet.EthernetInterface\""
par TcpVariants.sender.eth[0] displayStringTextFormat "\"%a (%i)\\n%m\""
par TcpVariants.sender.eth[0] recordPcap false
par TcpVariants.sender.eth[0] numPcapRecorders 0
par TcpVariants.sender.eth[0] interfaceTableModule "\"TcpVariants.sender.interfaceTable\""
par TcpVariants.sender.eth[0] protocol "\"ethernetmac\""
par TcpVariants.sender.eth[0] address "\"0A-AA-00-00-00-01\""
attr mutable ""
par TcpVariants.sender.eth[0] duplexMode true
par TcpVariants.sender.eth[0] csmacdSupport false
par TcpVariants.sender.eth[0] bitrate 0bps
attr unit bps
par TcpVariants.sender.eth[0] fcsMode "\"declared\""
attr enum declared,computed
scalar TcpVariants.sender.eth[0] packetDropInterfaceDown:count 0
attr interpolationmode none
attr recordingmode count
attr source packetDropReasonIsInterfaceDown(packetDropped)
attr title "packet drops: interface down, count"
scalar TcpVariants.sender.eth[0] packetDropInterfaceDown:sum(packetBytes) 0
attr interpolationmode none
attr recordingmode sum(packetBytes)
attr source packetDropReasonIsInterfaceDown(packetDropped)
attr title "packet drops: interface down, sum(packetBytes)"
scalar TcpVariants.sender.eth[0] packetDropNoCarrier:count 0
attr interpolationmode none
attr recordingmode count
attr source packetDropReasonIsNoCarrier(packetDropped)
attr title "packet drops: no carrier, count"
scalar TcpVariants.sender.eth[0] packetDropNoCarrier:sum(packetBytes) 0
attr interpolationmode none
attr recordingmode sum(packetBytes)
attr source packetDropReasonIsNoCarrier(packetDropped)
attr title "packet drops: no carrier, sum(packetBytes)"
par TcpVariants.sender.ipv4.transportIn.channel typename "\"ned.IdealChannel\""
par TcpVariants.sender.ipv4.up.out[0].channel typename "\"ned.IdealChannel\""
par TcpVariants.sender.ipv4.lp.out[2].channel typename "\"ned.IdealChannel\""
par TcpVariants.sender.ipv4.ifIn.channel typename "\"ned.IdealChannel\""
par TcpVariants.sender.ipv4.configurator typename "\"inet.networklayer.configurator.ipv4.Ipv4NodeConfigurator\""
par TcpVariants.sender.ipv4.configurator interfaceTableModule "\"TcpVariants.sender.interfaceTable\""
par TcpVariants.sender.ipv4.configurator routingTableModule "\"TcpVariants.sender.ipv4.routingTable\""
par TcpVariants.sender.ipv4.configurator networkConfiguratorModule "\"configurator\""
par TcpVariants.sender.ipv4.configurator configureRoutingTable true
par TcpVariants.sender.ipv4.routingTable typename "\"inet.networklayer.ipv4.Ipv4RoutingTable\""
par TcpVariants.sender.ipv4.routingTable interfaceTableModule "\"TcpVariants.sender.interfaceTable\""
par TcpVariants.sender.ipv4.routingTable routerId "\"auto\""
par TcpVariants.sender.ipv4.routingTable netmaskRoutes "\"*\""
par TcpVariants.sender.ipv4.routingTable forwarding false
par TcpVariants.sender.ipv4.routingTable multicastForwarding false
par TcpVariants.sender.ipv4.routingTable useAdminDist false
par TcpVariants.sender.ipv4.routingTable routingFile "\"\""
par TcpVariants.sender.ipv4.natTable typename "\"inet.networklayer.ipv4.Ipv4NatTable\""
par TcpVariants.sender.ipv4.natTable networkProtocolModule "\"^.ip\""
par TcpVariants.sender.ipv4.natTable config "<config/> at content:1"
par TcpVariants.sender.ipv4.up typename "\"inet.common.MessageDispatcher\""
par TcpVariants.sender.ipv4.up displayStringTextFormat "\"processed %p pk (%l)\""
par TcpVariants.sender.ipv4.up forwardServiceRegistration true
par TcpVariants.sender.ipv4.up forwardProtocolRegistration true
par TcpVariants.sender.ipv4.igmp typename "\"inet.networklayer.ipv4.Igmpv2\""
par TcpVariants.sender.ipv4.igmp interfaceTableModule "\"TcpVariants.sender.interfaceTable\""
par TcpVariants.sender.ipv4.igmp routingTableModule "\"TcpVariants.sender.ipv4.routingTable\""
par TcpVariants.sender.ipv4.igmp crcMode "\"declared\""
attr enum declared,computed
par TcpVariants.sender.ipv4.igmp enabled true
par TcpVariants.sender.ipv4.igmp robustnessVariable 2
par TcpVariants.sender.ipv4.igmp queryInterval 125s
attr unit s
par TcpVariants.sender.ipv4.igmp queryResponseInterval 10s
attr unit s
par TcpVariants.sender.ipv4.igmp groupMembershipInterval 260s
attr unit s
par TcpVariants.sender.ipv4.igmp otherQuerierPresentInterval 255s
attr unit s
par TcpVariants.sender.ipv4.igmp startupQueryInterval 31.25s
attr unit s
par TcpVariants.sender.ipv4.igmp startupQueryCount 2
par TcpVariants.sender.ipv4.igmp lastMemberQueryInterval 1s
attr unit s
par TcpVariants.sender.ipv4.igmp lastMemberQueryCount 2
par TcpVariants.sender.ipv4.igmp unsolicitedReportInterval 10s
attr unit s
par TcpVariants.sender.ipv4.icmp typename "\"inet.networklayer.ipv4.Icmp\""
par TcpVariants.sender.ipv4.icmp interfaceTableModule "\"TcpVariants.sender.interfaceTable\""
par TcpVariants.sender.ipv4.icmp routingTableModule "\"TcpVariants.sender.ipv4.routingTable\""
par TcpVariants.sender.ipv4.icmp crcMode "\"declared\""
attr enum declared,computed
attr mutable ""
par TcpVariants.sender.ipv4.icmp quoteLength 8B
attr mutable ""
attr unit B
par TcpVariants.sender.ipv4.mp typename "\"inet.common.MessageDispatcher\""
par TcpVariants.sender.ipv4.mp displayStringTextFormat "\"processed %p pk (%l)\""
par TcpVariants.sender.ipv4.mp forwardServiceRegistration true
par TcpVariants.sender.ipv4.mp forwardProtocolRegistration true
par TcpVariants.sender.ipv4.ip typename "\"inet.networklayer.ipv4.Ipv4\""
par TcpVariants.sender.ipv4.ip interfaceTableModule "\"TcpVariants.sender.interfaceTable\""
par TcpVariants.sender.ipv4.ip routingTableModule "\"TcpVariants.sender.ipv4.routingTable\""
par TcpVariants.sender.ipv4.ip arpModule "\"TcpVariants.sender.ipv4.arp\""
par TcpVariants.sender.ipv4.ip icmpModule "\"TcpVariants.sender.ipv4.icmp\""
par TcpVariants.sender.ipv4.ip crcMode "\"declared\""
attr enum declared,computed
par TcpVariants.sender.ipv4.ip timeToLive 32
par TcpVariants.sender.ipv4.ip multicastTimeToLive 32
par TcpVariants.sender.ipv4.ip fragmentTimeout 60s
attr unit s
par TcpVariants.sender.ipv4.ip limitedBroadcast false
par TcpVariants.sender.ipv4.ip directBroadcastInterfaces "\"\""
scalar TcpVariants.sender.ipv4.ip packetDropAddressResolutionFailed:count 0
attr interpolationmode none
attr recordingmode count
attr source packetDropReasonIsAddressResolutionFailed(packetDropped)
attr title "packet drop: address resolution failed, count"
scalar TcpVariants.sender.ipv4.ip packetDropAddressResolutionFailed:sum(packetBytes) 0
attr interpolationmode none
attr recordingmode sum(packetBytes)
attr source packetDropReasonIsAddressResolutionFailed(packetDropped)
attr title "packet drop: address resolution failed, sum(packetBytes)"
scalar TcpVariants.sender.ipv4.ip packetDropHopLimitReached:count 0
attr interpolationmode none
attr recordingmode count
attr source packetDropReasonIsHopLimitReached(packetDropped)
attr title "packet drop: hop limit reached, count"
scalar TcpVariants.sender.ipv4.ip packetDropHopLimitReached:sum(packetBytes) 0
attr interpolationmode none
attr recordingmode sum(packetBytes)
attr source packetDropReasonIsHopLimitReached(packetDropped)
attr title "packet drop: hop limit reached, sum(packetBytes)"
scalar TcpVariants.sender.ipv4.ip packetDropForwardingDisabled:count 0
attr interpolationmode none
attr recordingmode count
attr source packetDropReasonIsForwardingDisabled(packetDropped)
attr title "packet drop: forwarding disabled, count"
scalar TcpVariants.sender.ipv4.ip packetDropForwardingDisabled:sum(packetBytes) 0
attr interpolationmode none
attr recordingmode sum(packetBytes)
attr source packetDropReasonIsForwardingDisabled(packetDropped)
attr title "packet drop: forwarding disabled, sum(packetBytes)"
scalar TcpVariants.sender.ipv4.ip packetDropNoInterfaceFound:count 0
attr interpolationmode none
attr recordingmode count
attr source packetDropReasonIsNoInterfaceFound(packetDropped)
attr title "packet drop: no interface found, count"
scalar TcpVariants.sender.ipv4.ip packetDropNoInterfaceFound:sum(packetBytes) 0
attr interpolationmode none
attr recordingmode sum(packetBytes)
attr source packetDropReasonIsNoInterfaceFound(packetDropped)
attr title "packet drop: no interface found, sum(packetBytes)"
scalar TcpVariants.sender.ipv4.ip packetDropNoRouteFound:count 0
attr interpolationmode none
attr recordingmode count
attr source packetDropReasonIsNoRouteFound(packetDropped)
attr title "packet drop: no route found, count"
scalar TcpVariants.sender.ipv4.ip packetDropNoRouteFound:sum(packetBytes) 0
attr interpolationmode none
attr recordingmode sum(packetBytes)
attr source packetDropReasonIsNoRouteFound(packetDropped)
attr title "packet drop: no route found, sum(packetBytes)"
scalar TcpVariants.sender.ipv4.ip packetDropUndefined:count 0
attr interpolationmode none
attr recordingmode count
attr source packetDropReasonIsUndefined(packetDropped)
attr title "packet drop: undefined, count"
scalar TcpVariants.sender.ipv4.ip packetDropUndefined:sum(packetBytes) 0
attr interpolationmode none
attr recordingmode sum(packetBytes)
attr source packetDropReasonIsUndefined(packetDropped)
attr title "packet drop: undefined, sum(packetBytes)"
par TcpVariants.sender.ipv4.arp typename "\"inet.networklayer.arp.ipv4.Arp\""
par TcpVariants.sender.ipv4.arp interfaceTableModule "\"TcpVariants.sender.interfaceTable\""
par TcpVariants.sender.ipv4.arp routingTableModule "\"TcpVariants.sender.ipv4.routingTable\""
par TcpVariants.sender.ipv4.arp retryTimeout 1s
attr unit s
par TcpVariants.sender.ipv4.arp retryCount 3
par TcpVariants.sender.ipv4.arp cacheTimeout 120s
attr unit s
par TcpVariants.sender.ipv4.arp proxyArpInterfaces "\"\""
scalar TcpVariants.sender.ipv4.arp arpReplySent:count 0
attr recordingmode count
attr source arpReplySent
attr title "ARP replies sent, count"
scalar TcpVariants.sender.ipv4.arp arpReplySent:sum(packetBytes) 0
attr recordingmode sum(packetBytes)
attr source arpReplySent
attr title "ARP replies sent, sum(packetBytes)"
scalar TcpVariants.sender.ipv4.arp arpRequestSent:count 1
attr recordingmode count
attr source arpRequestSent
attr title "ARP request sent, count"
scalar TcpVariants.sender.ipv4.arp arpRequestSent:sum(packetBytes) 28
attr recordingmode sum(packetBytes)
attr source arpRequestSent
attr title "ARP request sent, sum(packetBytes)"
scalar TcpVariants.sender.ipv4.arp arpResolutionFailed:count 0
attr recordingmode count
attr title "ARP failed resolutions, count"
scalar TcpVariants.sender.ipv4.arp arpResolutionCompleted:count 1
attr recordingmode count
attr title "ARP completed resolutions, count"
scalar TcpVariants.sender.ipv4.arp arpResolutionInitiated:count 1
attr recordingmode count
attr title "ARP initiated resolutions, count"
par TcpVariants.sender.ipv4.lp typename "\"inet.common.MessageDispatcher\""
par TcpVariants.sender.ipv4.lp displayStringTextFormat "\"processed %p pk (%l)\""
par TcpVariants.sender.ipv4.lp forwardServiceRegistration true
par TcpVariants.sender.ipv4.lp forwardProtocolRegistration true
par TcpVariants.sender.ipv4 typename "\"inet.networklayer.ipv4.Ipv4NetworkLayer\""
par TcpVariants.sender.ipv4 forwarding false
par TcpVariants.sender.ipv4 multicastForwarding false
par TcpVariants.sender.ipv4 interfaceTableModule "\"TcpVariants.sender.interfaceTable\""
par TcpVariants.sender.ipv4 displayStringTextFormat "\"%i\""
par TcpVariants.sender.nl typename "\"inet.common.MessageDispatcher\""
par TcpVariants.sender.nl displayStringTextFormat "\"processed %p pk (%l)\""
par TcpVariants.sender.nl forwardServiceRegistration true
par TcpVariants.sender.nl forwardProtocolRegistration true
par TcpVariants.sender.udp typename "\"inet.transportlayer.udp.Udp\""
par TcpVariants.sender.udp interfaceTableModule "\"TcpVariants.sender.interfaceTable\""
par TcpVariants.sender.udp icmpModule "\"^.ipv4.icmp\""
par TcpVariants.sender.udp icmpv6Module "\"^.ipv6.icmpv6\""
par TcpVariants.sender.udp crcMode "\"declared\""
attr enum disabled,declared,computed
par TcpVariants.sender.udp defaultMulticastLoop true
scalar TcpVariants.sender.udp packetReceived:count 0
attr interpolationmode none
attr recordingmode count
attr source packetReceived
attr title "packets received, count"
scalar TcpVariants.sender.udp packetReceived:sum(packetBytes) 0
attr interpolationmode none
attr recordingmode sum(packetBytes)
attr source packetReceived
attr title "packets received, sum(packetBytes)"
scalar TcpVariants.sender.udp packetSent:count 0
attr interpolationmode none
attr recordingmode count
attr source packetSent
attr title "packets sent, count"
scalar TcpVariants.sender.udp packetSent:sum(packetBytes) 0
attr interpolationmode none
attr recordingmode sum(packetBytes)
attr source packetSent
attr title "packets sent, sum(packetBytes)"
scalar TcpVariants.sender.udp passedUpPk:count 0
attr interpolationmode none
attr recordingmode count
attr source packetSentToUpper
attr title "packets passed up, count"
scalar TcpVariants.sender.udp droppedPkWrongPort:count 0
attr interpolationmode none
attr recordingmode count
attr source packetDropReasonIsNoPortFound(packetDropped)
attr title "packets dropped (wrong port), count"
scalar TcpVariants.sender.udp droppedPkBadChecksum:count 0
attr interpolationmode none
attr recordingmode count
attr source packetDropReasonIsIncorrectlyReceived(packetDropped)
attr title "packets dropped (checksum error), count"
par TcpVariants.sender.tcp.conn-3 typename "\"inet.transportlayer.tcp.TcpConnection\""
par TcpVariants.sender.tcp typename "\"inet.transportlayer.tcp.Tcp\""
par TcpVariants.sender.tcp crcMode "\"declared\""
attr enum declared,computed
par TcpVariants.sender.tcp advertisedWindow 20440
par TcpVariants.sender.tcp delayedAcksEnabled false
par TcpVariants.sender.tcp nagleEnabled true
par TcpVariants.sender.tcp limitedTransmitEnabled false
par TcpVariants.sender.tcp increasedIWEnabled false
par TcpVariants.sender.tcp sackSupport false
par TcpVariants.sender.tcp windowScalingSupport false
par TcpVariants.sender.tcp windowScalingFactor -1
par TcpVariants.sender.tcp timestampSupport false
par TcpVariants.sender.tcp mss 1460
par TcpVariants.sender.tcp msl 120s
attr unit s
par TcpVariants.sender.tcp tcpAlgorithmClass "\"TcpNewReno\""
par TcpVariants.sender.tcp useDataNotification false
par TcpVariants.sender.tcp dupthresh 3
par TcpVariants.sender.tcp initialSsthresh 4294967295
par TcpVariants.sender.tcp stopOperationExtraTime 0s
attr unit s
par TcpVariants.sender.tcp stopOperationTimeout 2s
attr unit s
par TcpVariants.sender.tcp ecnWillingness false
par TcpVariants.sender.tcp dctcpGamma 0.0625
par TcpVariants.sender.tn typename "\"inet.common.MessageDispatcher\""
par TcpVariants.sender.tn displayStringTextFormat "\"processed %p pk (%l)\""
par TcpVariants.sender.tn forwardServiceRegistration true
par TcpVariants.sender.tn forwardProtocolRegistration true
par TcpVariants.sender.app[0] typename "\"inet.applications.tcpapp.TcpSessionApp\""
par TcpVariants.sender.app[0] localAddress "\"\""
par TcpVariants.sender.app[0] localPort 1000
par TcpVariants.sender.app[0] active true
par TcpVariants.sender.app[0] connectAddress "\"receiver\""
par TcpVariants.sender.app[0] connectPort 1000
par TcpVariants.sender.app[0] dataTransferMode "\"bytecount\""
attr enum bytecount,object,bytestream
par TcpVariants.sender.app[0] tOpen 0s
attr unit s
par TcpVariants.sender.app[0] tSend 0s
attr unit s
par TcpVariants.sender.app[0] sendBytes 104857600B
attr unit B
par TcpVariants.sender.app[0] sendScript "\"\""
par TcpVariants.sender.app[0] tClose -1s
attr unit s
par TcpVariants.sender.app[0] timeToLive -1
par TcpVariants.sender.app[0] dscp -1
par TcpVariants.sender.app[0] tos -1
par TcpVariants.sender.app[0] stopOperationExtraTime -1s
attr unit s
par TcpVariants.sender.app[0] stopOperationTimeout 2s
attr unit s
scalar TcpVariants.sender.app[0] bytesRcvd 0
scalar TcpVariants.sender.app[0] bytesSent 104857600
scalar TcpVariants.sender.app[0] packetReceived:count 0
attr interpolationmode none
attr recordingmode count
attr source packetReceived
attr title "packets received, count"
scalar TcpVariants.sender.app[0] packetReceived:sum(packetBytes) 0
attr interpolationmode none
attr recordingmode sum(packetBytes)
attr source packetReceived
attr title "packets received, sum(packetBytes)"
statistic TcpVariants.sender.app[0] endToEndDelay:histogram
field count 0
field mean nan
field stddev nan
field min nan
field max nan
field sum 0
field sqrsum 0
attr interpolationmode none
attr recordingmode histogram
attr source dataAge(packetReceived)
attr title "end-to-end delay"
attr unit s
bin	-inf	0
bin	0	0
bin	1	0
statistic TcpVariants.sender.app[0] endToEndDelay:weightedHistogram
field count 0
field mean nan
field stddev nan
field min nan
field max nan
field weights 0
field weightedSum 0
field sqrSumWeights 0
field weightedSqrSum 0
attr interpolationmode none
attr recordingmode weightedHistogram
attr source dataAge(packetReceived)
attr title "end-to-end delay, weightedHistogram"
attr unit s
bin	-inf	0
bin	0	0
bin	1	0
scalar TcpVariants.sender.app[0] packetSent:count 1
attr interpolationmode none
attr recordingmode count
attr source packetSent
attr title "packets sent, count"
scalar TcpVariants.sender.app[0] packetSent:sum(packetBytes) 104857600
attr interpolationmode none
attr recordingmode sum(packetBytes)
attr source packetSent
attr title "packets sent, sum(packetBytes)"
par TcpVariants.sender.at typename "\"inet.common.MessageDispatcher\""
par TcpVariants.sender.at displayStringTextFormat "\"processed %p pk (%l)\""
par TcpVariants.sender.at forwardServiceRegistration true
par TcpVariants.sender.at forwardProtocolRegistration true
par TcpVariants.sender typename "\"inet.node.inet.StandardHost\""
par TcpVariants.sender hasStatus false
par TcpVariants.sender osgModel "\"\""
par TcpVariants.sender osgModelColor "\"\""
par TcpVariants.sender canvasImage "\"\""
par TcpVariants.sender canvasImageColor "\"\""
par TcpVariants.sender recordPcap false
par TcpVariants.sender numPcapRecorders 0
par TcpVariants.sender numLoInterfaces 1
par TcpVariants.sender numWlanInterfaces 0
par TcpVariants.sender numEthInterfaces 0
par TcpVariants.sender numPppInterfaces 0
par TcpVariants.sender numTunInterfaces 0
par TcpVariants.sender numVirtInterfaces 0
par TcpVariants.sender fcsMode "\"declared\""
attr enum declared,computed
par TcpVariants.sender hasIpv4 true
par TcpVariants.sender hasIpv6 false
par TcpVariants.sender hasGn false
par TcpVariants.sender forwarding false
par TcpVariants.sender multicastForwarding false
par TcpVariants.sender hasUdp true
par TcpVariants.sender hasTcp true
par TcpVariants.sender hasSctp false
par TcpVariants.sender numApps 1
par TcpVariants.router.ethg$i[0].channel typename "\"ned.IdealChannel\""
par TcpVariants.router.eth[0].phys$o.channel typename "\"ned.IdealChannel\""
par TcpVariants.router.ethg$i[1].channel typename "\"ned.IdealChannel\""
par TcpVariants.router.eth[1].phys$o.channel typename "\"ned.IdealChannel\""
par TcpVariants.router.ethg$i[2].channel typename "\"ned.IdealChannel\""
par TcpVariants.router.eth[2].phys$o.channel typename "\"ned.IdealChannel\""
par TcpVariants.router.interfaceTable typename "\"inet.networklayer.common.InterfaceTable\""
par TcpVariants.router.interfaceTable displayAddresses false
par TcpVariants.router.cb typename "\"inet.common.MessageDispatcher\""
par TcpVariants.router.cb displayStringTextFormat "\"processed %p pk (%l)\""
par TcpVariants.router.cb forwardServiceRegistration true
par TcpVariants.router.cb forwardProtocolRegistration true
par TcpVariants.router.bl typename "\"inet.common.MessageDispatcher\""
par TcpVariants.router.bl displayStringTextFormat "\"processed %p pk (%l)\""
par TcpVariants.router.bl forwardServiceRegistration true
par TcpVariants.router.bl forwardProtocolRegistration true
par TcpVariants.router.ethernet typename "\"inet.linklayer.ethernet.basic.EthernetEncapsulation\""
par TcpVariants.router.ethernet registerProtocol true
par TcpVariants.router.ethernet interfaceTableModule "\"TcpVariants.router.interfaceTable\""
par TcpVariants.router.ethernet fcsMode "\"declared\""
attr enum declared,computed
par TcpVariants.router.ethernet stopOperationExtraTime -1s
attr unit s
par TcpVariants.router.ethernet stopOperationTimeout 2s
attr unit s
scalar TcpVariants.router.ethernet decapPk:count 13786
attr interpolationmode none
attr recordingmode count
attr source decapPk
attr title "packets decapsulated, count"
scalar TcpVariants.router.ethernet decapPk:sum(packetBytes) 10650762
attr interpolationmode none
attr recordingmode sum(packetBytes)
attr source decapPk
attr title "packets decapsulated, sum(packetBytes)"
scalar TcpVariants.router.ethernet encapPk:count 13786
attr interpolationmode none
attr recordingmode count
attr source encapPk
attr title "packets encapsulated, count"
scalar TcpVariants.router.ethernet encapPk:sum(packetBytes) 10609356
attr interpolationmode none
attr recordingmode sum(packetBytes)
attr source encapPk
attr title "packets encapsulated, sum(packetBytes)"
scalar TcpVariants.router.ethernet pauseSent:count 0
attr recordingmode count
attr title "pause sent, count"
scalar TcpVariants.router.ethernet pauseSent:sum 0
attr recordingmode sum
attr title "pause sent, sum"
par TcpVariants.router.li typename "\"inet.common.MessageDispatcher\""
par TcpVariants.router.li displayStringTextFormat "\"processed %p pk (%l)\""
par TcpVariants.router.li forwardServiceRegistration true
par TcpVariants.router.li forwardProtocolRegistration true
par TcpVariants.router.lo[0].upperLayerIn.channel typename "\"ned.IdealChannel\""
par TcpVariants.router.lo[0].lo.upperLayerOut.channel typename "\"ned.IdealChannel\""
par TcpVariants.router.lo[0].lo typename "\"inet.linklayer.loopback.Loopback\""
par TcpVariants.router.lo[0].lo interfaceTableModule "\"TcpVariants.router.interfaceTable\""
par TcpVariants.router.lo[0].lo mtu 4470B
attr unit B
scalar TcpVariants.router.lo[0].lo rcvdPkFromHl:count 0
attr interpolationmode none
attr recordingmode count
attr source packetReceivedFromUpper
attr title "packets received from higher layer, count"
scalar TcpVariants.router.lo[0].lo rcvdPkFromHl:sum(packetBytes) 0
attr interpolationmode none
attr recordingmode sum(packetBytes)
attr source packetReceivedFromUpper
attr title "packets received from higher layer, sum(packetBytes)"
scalar TcpVariants.router.lo[0].lo passedUpPk:count 0
attr interpolationmode none
attr recordingmode count
attr source packetSentToUpper
attr title "packets passed to higher layer, count"
scalar TcpVariants.router.lo[0].lo passedUpPk:sum(packetBytes) 0
attr interpolationmode none
attr recordingmode sum(packetBytes)
attr source packetSentToUpper
attr title "packets passed to higher layer, sum(packetBytes)"
par TcpVariants.router.lo[0] typename "\"inet.linklayer.loopback.LoopbackInterface\""
par TcpVariants.router.lo[0] displayStringTextFormat "\"%a (%i)\\n%m\""
par TcpVariants.router.lo[0] recordPcap false
par TcpVariants.router.lo[0] numPcapRecorders 0
par TcpVariants.router.lo[0] interfaceTableModule "\"TcpVariants.router.interfaceTable\""
scalar TcpVariants.router.lo[0] packetDropInterfaceDown:count 0
attr interpolationmode none
attr recordingmode count
attr source packetDropReasonIsInterfaceDown(packetDropped)
attr title "packet drops: interface down, count"
scalar TcpVariants.router.lo[0] packetDropInterfaceDown:sum(packetBytes) 0
attr interpolationmode none
attr recordingmode sum(packetBytes)
attr source packetDropReasonIsInterfaceDown(packetDropped)
attr title "packet drops: interface down, sum(packetBytes)"
scalar TcpVariants.router.lo[0] packetDropNoCarrier:count 0
attr interpolationmode none
attr recordingmode count
attr source packetDropReasonIsNoCarrier(packetDropped)
attr title "packet drops: no carrier, count"
scalar TcpVariants.router.lo[0] packetDropNoCarrier:sum(packetBytes) 0
attr interpolationmode none
attr recordingmode sum(packetBytes)
attr source packetDropReasonIsNoCarrier(packetDropped)
attr title "packet drops: no carrier, sum(packetBytes)"
par TcpVariants.router.eth[0].mac.phys$o.channel typename "\"ned.IdealChannel\""
par TcpVariants.router.eth[0].phys$i.channel typename "\"ned.IdealChannel\""
par TcpVariants.router.eth[0].upperLayerIn.channel typename "\"ned.IdealChannel\""
par TcpVariants.router.eth[0].mac.upperLayerOut.channel typename "\"ned.IdealChannel\""
par TcpVariants.router.eth[0].queue typename "\"inet.linklayer.ethernet.common.EthernetQueue\""
par TcpVariants.router.eth[0].queue displayStringTextFormat "\"contains %p pk (%l) pushed %u\\npulled %o removed %r dropped %d\""
par TcpVariants.router.eth[0].queue packetCapacity 1000
par TcpVariants.router.eth[0].queue dataCapacity -1b
attr unit b
par TcpVariants.router.eth[0].queue dropperClass "\"inet::queueing::PacketAtCollectionEndDropper\""
par TcpVariants.router.eth[0].queue comparatorClass "\"inet::EthernetFrameTypeComparator\""
par TcpVariants.router.eth[0].queue bufferModule "\"\""
scalar TcpVariants.router.eth[0].queue queueLength:last 0
attr autoWarmupFilter false
attr interpolationmode sample-hold
attr recordingmode last
attr source "warmup(atomic(constant0(packetPushEnded) + count(packetPushStarted) - count(packetPulled) - count(packetRemoved) - count(packetDropped)))"
attr title "queue length, last"
attr unit pk
scalar TcpVariants.router.eth[0].queue queueLength:max 0
attr autoWarmupFilter false
attr interpolationmode sample-hold
attr recordingmode max
attr source "warmup(atomic(constant0(packetPushEnded) + count(packetPushStarted) - count(packetPulled) - count(packetRemoved) - count(packetDropped)))"
attr title "queue length, max"
attr unit pk
scalar TcpVariants.router.eth[0].queue queueLength:timeavg 0
attr autoWarmupFilter false
attr interpolationmode sample-hold
attr recordingmode timeavg
attr source "warmup(atomic(constant0(packetPushEnded) + count(packetPushStarted) - count(packetPulled) - count(packetRemoved) - count(packetDropped)))"
attr title "queue length, timeavg"
attr unit pk
scalar TcpVariants.router.eth[0].queue queueBitLength:last 0
attr autoWarmupFilter false
attr interpolationmode sample-hold
attr recordingmode last
attr source "warmup(atomic(constant0(packetPushEnded) + sum(packetLength(packetPushStarted)) - sum(packetLength(packetPulled)) - sum(packetLength(packetRemoved)) - sum(packetLength(packetDropped))))"
attr title "queue bit length, last"
attr unit b
scalar TcpVariants.router.eth[0].queue queueBitLength:max 0
attr autoWarmupFilter false
attr interpolationmode sample-hold
attr recordingmode max
attr source "warmup(atomic(constant0(packetPushEnded) + sum(packetLength(packetPushStarted)) - sum(packetLength(packetPulled)) - sum(packetLength(packetRemoved)) - sum(packetLength(packetDropped))))"
attr title "queue bit length, max"
attr unit b
scalar TcpVariants.router.eth[0].queue queueBitLength:timeavg 0
attr autoWarmupFilter false
attr interpolationmode sample-hold
attr recordingmode timeavg
attr source "warmup(atomic(constant0(packetPushEnded) + sum(packetLength(packetPushStarted)) - sum(packetLength(packetPulled)) - sum(packetLength(packetRemoved)) - sum(packetLength(packetDropped))))"
attr title "queue bit length, timeavg"
attr unit b
statistic TcpVariants.router.eth[0].queue queueingTime:histogram
field count 6891
field mean 0
field stddev 0
field min 0
field max 0
field sum 0
field sqrsum 0
attr interpolationmode none
attr recordingmode histogram
attr source queueingTime(packetPulled)
attr title "queueing times"
attr unit s
bin	-inf	0
bin	-0.5	0
bin	-0.48	0
bin	-0.46	0
bin	-0.44	0
bin	-0.42	0
bin	-0.4	0
bin	-0.38	0
bin	-0.36	0
bin	-0.34	0
bin	-0.32	0
bin	-0.3	0
bin	-0.28	0
bin	-0.26	0
bin	-0.24	0
bin	-0.22	0
bin	-0.2	0
bin	-0.18	0
bin	-0.16	0
bin	-0.14	0
bin	-0.12	0
bin	-0.1	0
bin	-0.08	0
bin	-0.06	0
bin	-0.04	0
bin	-0.02	0
bin	0	6891
bin	0.02	0
bin	0.04	0
bin	0.06	0
bin	0.08	0
bin	0.1	0
bin	0.12	0
bin	0.14	0
bin	0.16	0
bin	0.18	0
bin	0.2	0
bin	0.22	0
bin	0.24	0
bin	0.26	0
bin	0.28	0
bin	0.3	0
bin	0.32	0
bin	0.34	0
bin	0.36	0
bin	0.38	0
bin	0.4	0
bin	0.42	0
bin	0.44	0
bin	0.46	0
bin	0.48	0
bin	0.5	0
scalar TcpVariants.router.eth[0].queue outgoingPackets:count 6891
attr recordingmode count
attr source packetPulled
attr title "outgoing packets, count"
attr unit pk
scalar TcpVariants.router.eth[0].queue outgoingPacketLengths:sum 3197360
attr interpolationmode none
attr recordingmode sum
attr source packetLength(packetPulled)
attr title "outgoing packet lengths, sum"
attr unit b
statistic TcpVariants.router.eth[0].queue outgoingPacketLengths:histogram
field count 6891
field mean 463.99071252358
field stddev 1.219067525434
field min 368
field max 496
field sum 3197360
field sqrsum 1483555584
attr interpolationmode none
attr recordingmode histogram
attr source packetLength(packetPulled)
attr title "outgoing packet lengths"
attr unit b
bin	-inf	0
bin	336	0
bin	338	0
bin	340	0
bin	342	0
bin	344	0
bin	346	0
bin	348	0
bin	350	0
bin	352	0
bin	354	0
bin	356	0
bin	358	0
bin	360	0
bin	362	0
bin	364	0
bin	366	0
bin	368	1
bin	370	0
bin	372	0
bin	374	0
bin	376	0
bin	378	0
bin	380	0
bin	382	0
bin	384	0
bin	386	0
bin	388	0
bin	390	0
bin	392	0
bin	394	0
bin	396	0
bin	398	0
bin	400	0
bin	402	0
bin	404	0
bin	406	0
bin	408	0
bin	410	0
bin	412	0
bin	414	0
bin	416	0
bin	418	0
bin	420	0
bin	422	0
bin	424	0
bin	426	0
bin	428	0
bin	430	0
bin	432	0
bin	434	0
bin	436	0
bin	438	0
bin	440	0
bin	442	0
bin	444	0
bin	446	0
bin	448	0
bin	450	0
bin	452	0
bin	454	0
bin	456	0
bin	458	0
bin	460	0
bin	462	0
bin	464	6889
bin	466	0
bin	468	0
bin	470	0
bin	472	0
bin	474	0
bin	476	0
bin	478	0
bin	480	0
bin	482	0
bin	484	0
bin	486	0
bin	488	0
bin	490	0
bin	492	0
bin	494	0
bin	496	1
bin	498	0
bin	500	0
bin	502	0
bin	504	0
bin	506	0
bin	508	0
bin	510	0
bin	512	0
bin	514	0
bin	516	0
bin	518	0
bin	520	0
bin	522	0
bin	524	0
bin	526	0
bin	528	0
statistic TcpVariants.router.eth[0].queue flowQueueingTime:histogram
field count 0
field mean nan
field stddev nan
field min nan
field max nan
field sum 0
field sqrsum 0
attr interpolationmode none
attr recordingmode histogram
attr source queueingTime(demuxFlow(packetPulled))
attr title "flow queueing times"
attr unit s
bin	-inf	0
bin	0	0
bin	1	0
scalar TcpVariants.router.eth[0].queue incomingPackets:count 6891
attr recordingmode count
attr source packetPushStarted
attr title "incoming packets, count"
attr unit pk
scalar TcpVariants.router.eth[0].queue incomingPacketLengths:sum 3197360
attr interpolationmode none
attr recordingmode sum
attr source packetLength(packetPushStarted)
attr title "incoming packet lengths, sum"
attr unit b
statistic TcpVariants.router.eth[0].queue incomingPacketLengths:histogram
field count 6891
field mean 463.99071252358
field stddev 1.219067525434
field min 368
field max 496
field sum 3197360
field sqrsum 1483555584
attr interpolationmode none
attr recordingmode histogram
attr source packetLength(packetPushStarted)
attr title "incoming packet lengths"
attr unit b
bin	-inf	0
bin	336	0
bin	338	0
bin	340	0
bin	342	0
bin	344	0
bin	346	0
bin	348	0
bin	350	0
bin	352	0
bin	354	0
bin	356	0
bin	358	0
bin	360	0
bin	362	0
bin	364	0
bin	366	0
bin	368	1
bin	370	0
bin	372	0
bin	374	0
bin	376	0
bin	378	0
bin	380	0
bin	382	0
bin	384	0
bin	386	0
bin	388	0
bin	390	0
bin	392	0
bin	394	0
bin	396	0
bin	398	0
bin	400	0
bin	402	0
bin	404	0
bin	406	0
bin	408	0
bin	410	0
bin	412	0
bin	414	0
bin	416	0
bin	418	0
bin	420	0
bin	422	0
bin	424	0
bin	426	0
bin	428	0
bin	430	0
bin	432	0
bin	434	0
bin	436	0
bin	438	0
bin	440	0
bin	442	0
bin	444	0
bin	446	0
bin	448	0
bin	450	0
bin	452	0
bin	454	0
bin	456	0
bin	458	0
bin	460	0
bin	462	0
bin	464	6889
bin	466	0
bin	468	0
bin	470	0
bin	472	0
bin	474	0
bin	476	0
bin	478	0
bin	480	0
bin	482	0
bin	484	0
bin	486	0
bin	488	0
bin	490	0
bin	492	0
bin	494	0
bin	496	1
bin	498	0
bin	500	0
bin	502	0
bin	504	0
bin	506	0
bin	508	0
bin	510	0
bin	512	0
bin	514	0
bin	516	0
bin	518	0
bin	520	0
bin	522	0
bin	524	0
bin	526	0
bin	528	0
scalar TcpVariants.router.eth[0].queue droppedPacketsQueueOverflow:count 0
attr interpolationmode none
attr recordingmode count
attr source packetDropReasonIsQueueOverflow(packetDropped)
attr title "dropped packets: queue overflow, count"
attr unit pk
scalar TcpVariants.router.eth[0].queue droppedPacketLengthsQueueOverflow:sum 0
attr interpolationmode none
attr recordingmode sum
attr source packetLength(packetDropReasonIsQueueOverflow(packetDropped))
attr title "dropped packet lengths: queue overflow, sum"
attr unit b
par TcpVariants.router.eth[0].mac typename "\"inet.linklayer.ethernet.basic.EthernetMac\""
par TcpVariants.router.eth[0].mac interfaceTableModule "\"TcpVariants.router.interfaceTable\""
par TcpVariants.router.eth[0].mac displayStringTextFormat "\"rate: %b\\nsent: %s, rcvd: %r\\nqueue: %q, drop: %d\""
par TcpVariants.router.eth[0].mac sendRawBytes false
par TcpVariants.router.eth[0].mac promiscuous false
par TcpVariants.router.eth[0].mac duplexMode true
par TcpVariants.router.eth[0].mac mtu 1500B
attr unit B
par TcpVariants.router.eth[0].mac fcsMode "\"declared\""
attr enum declared,computed
par TcpVariants.router.eth[0].mac stopOperationExtraTime -1s
attr unit s
par TcpVariants.router.eth[0].mac stopOperationTimeout 2s
attr unit s
scalar TcpVariants.router.eth[0].mac "simulated time" 20
scalar TcpVariants.router.eth[0].mac full-duplex 1
scalar TcpVariants.router.eth[0].mac "frames/sec sent" 344.55
scalar TcpVariants.router.eth[0].mac "frames/sec rcvd" 344.6
scalar TcpVariants.router.eth[0].mac "bits/sec sent" 176409.6
scalar TcpVariants.router.eth[0].mac "bits/sec rcvd" 4183077.6
scalar TcpVariants.router.eth[0].mac "rx channel idle (%)" 95.794868
scalar TcpVariants.router.eth[0].mac "rx channel utilization (%)" 4.205132
scalar TcpVariants.router.eth[0].mac txPk:count 6891
attr interpolationmode none
attr recordingmode count
attr source packetSentToLower
attr title "packets transmitted, count"
scalar TcpVariants.router.eth[0].mac txPk:sum(packetBytes) 441024
attr interpolationmode none
attr recordingmode sum(packetBytes)
attr source packetSentToLower
attr title "packets transmitted, sum(packetBytes)"
scalar TcpVariants.router.eth[0].mac packetReceivedFromUpper:count 6891
attr interpolationmode none
attr recordingmode count
attr source packetReceivedFromUpper
attr title "packet bytes from higher layer, count"
scalar TcpVariants.router.eth[0].mac packetReceivedFromUpper:sum(packetBytes) 399670
attr interpolationmode none
attr recordingmode sum(packetBytes)
attr source packetReceivedFromUpper
attr title "packet bytes from higher layer, sum(packetBytes)"
scalar TcpVariants.router.eth[0].mac passedUpPk:count 6892
attr interpolationmode none
attr recordingmode count
attr source packetSentToUpper
attr title "packets passed to higher layer, count"
scalar TcpVariants.router.eth[0].mac passedUpPk:sum(packetBytes) 10457694
attr interpolationmode none
attr recordingmode sum(packetBytes)
attr source packetSentToUpper
attr title "packets passed to higher layer, sum(packetBytes)"
scalar TcpVariants.router.eth[0].mac packetDropIncorrectlyReceived:count 0
attr interpolationmode none
attr recordingmode count
attr source packetDropReasonIsIncorrectlyReceived(packetDropped)
attr title "packet drop: incorrectly received, count"
scalar TcpVariants.router.eth[0].mac packetDropIncorrectlyReceived:sum(packetBytes) 0
attr interpolationmode none
attr recordingmode sum(packetBytes)
attr source packetDropReasonIsIncorrectlyReceived(packetDropped)
attr title "packet drop: incorrectly received, sum(packetBytes)"
scalar TcpVariants.router.eth[0].mac packetDropInterfaceDown:count 0
attr interpolationmode none
attr recordingmode count
attr source packetDropReasonIsInterfaceDown(packetDropped)
attr title "packet drop: interface down, count"
scalar TcpVariants.router.eth[0].mac packetDropInterfaceDown:sum(packetBytes) 0
attr interpolationmode none
attr recordingmode sum(packetBytes)
attr source packetDropReasonIsInterfaceDown(packetDropped)
attr title "packet drop: interface down, sum(packetBytes)"
scalar TcpVariants.router.eth[0].mac packetDropNotAddressedToUs:count 0
attr interpolationmode none
attr recordingmode count
attr source packetDropReasonIsNotAddressedToUs(packetDropped)
attr title "packet drop: not addressed to us, count"
scalar TcpVariants.router.eth[0].mac packetDropNotAddressedToUs:sum(packetBytes) 0
attr interpolationmode none
attr recordingmode sum(packetBytes)
attr source packetDropReasonIsNotAddressedToUs(packetDropped)
attr title "packet drop: not addressed to us, sum(packetBytes)"
scalar TcpVariants.router.eth[0].mac rxPausePkUnits:count 0
attr interpolationmode none
attr recordingmode count
attr title "pause units received, count"
scalar TcpVariants.router.eth[0].mac rxPausePkUnits:sum 0
attr interpolationmode none
attr recordingmode sum
attr title "pause units received, sum"
scalar TcpVariants.router.eth[0].mac txPausePkUnits:count 0
attr interpolationmode none
attr recordingmode count
attr title "pause units sent, count"
scalar TcpVariants.router.eth[0].mac txPausePkUnits:sum 0
attr interpolationmode none
attr recordingmode sum
attr title "pause units sent, sum"
scalar TcpVariants.router.eth[0].mac rxPkOk:count 6892
attr interpolationmode none
attr recordingmode count
attr source rxPkOk
attr title "packets received OK, count"
scalar TcpVariants.router.eth[0].mac rxPkOk:sum(packetBytes) 10457694
attr interpolationmode none
attr recordingmode sum(packetBytes)
attr source rxPkOk
attr title "packets received OK, sum(packetBytes)"
par TcpVariants.router.eth[0] typename "\"inet.linklayer.ethernet.EthernetInterface\""
par TcpVariants.router.eth[0] displayStringTextFormat "\"%a (%i)\\n%m\""
par TcpVariants.router.eth[0] recordPcap false
par TcpVariants.router.eth[0] numPcapRecorders 0
par TcpVariants.router.eth[0] interfaceTableModule "\"TcpVariants.router.interfaceTable\""
par TcpVariants.router.eth[0] protocol "\"ethernetmac\""
par TcpVariants.router.eth[0] address "\"0A-AA-00-00-00-02\""
attr mutable ""
par TcpVariants.router.eth[0] duplexMode true
par TcpVariants.router.eth[0] csmacdSupport false
par TcpVariants.router.eth[0] bitrate 0bps
attr unit bps
par TcpVariants.router.eth[0] fcsMode "\"declared\""
attr enum declared,computed
scalar TcpVariants.router.eth[0] packetDropInterfaceDown:count 0
attr interpolationmode none
attr recordingmode count
attr source packetDropReasonIsInterfaceDown(packetDropped)
attr title "packet drops: interface down, count"
scalar TcpVariants.router.eth[0] packetDropInterfaceDown:sum(packetBytes) 0
attr interpolationmode none
attr recordingmode sum(packetBytes)
attr source packetDropReasonIsInterfaceDown(packetDropped)
attr title "packet drops: interface down, sum(packetBytes)"
scalar TcpVariants.router.eth[0] packetDropNoCarrier:count 0
attr interpolationmode none
attr recordingmode count
attr source packetDropReasonIsNoCarrier(packetDropped)
attr title "packet drops: no carrier, count"
scalar TcpVariants.router.eth[0] packetDropNoCarrier:sum(packetBytes) 0
attr interpolationmode none
attr recordingmode sum(packetBytes)
attr source packetDropReasonIsNoCarrier(packetDropped)
attr title "packet drops: no carrier, sum(packetBytes)"
par TcpVariants.router.eth[1].mac.phys$o.channel typename "\"ned.IdealChannel\""
par TcpVariants.router.eth[1].phys$i.channel typename "\"ned.IdealChannel\""
par TcpVariants.router.eth[1].upperLayerIn.channel typename "\"ned.IdealChannel\""
par TcpVariants.router.eth[1].mac.upperLayerOut.channel typename "\"ned.IdealChannel\""
par TcpVariants.router.eth[1].queue typename "\"inet.linklayer.ethernet.common.EthernetQueue\""
par TcpVariants.router.eth[1].queue displayStringTextFormat "\"contains %p pk (%l) pushed %u\\npulled %o removed %r dropped %d\""
par TcpVariants.router.eth[1].queue packetCapacity 1000
par TcpVariants.router.eth[1].queue dataCapacity -1b
attr unit b
par TcpVariants.router.eth[1].queue dropperClass "\"inet::queueing::PacketAtCollectionEndDropper\""
par TcpVariants.router.eth[1].queue comparatorClass "\"inet::EthernetFrameTypeComparator\""
par TcpVariants.router.eth[1].queue bufferModule "\"\""
scalar TcpVariants.router.eth[1].queue queueLength:last 0
attr autoWarmupFilter false
attr interpolationmode sample-hold
attr recordingmode last
attr source "warmup(atomic(constant0(packetPushEnded) + count(packetPushStarted) - count(packetPulled) - count(packetRemoved) - count(packetDropped)))"
attr title "queue length, last"
attr unit pk
scalar TcpVariants.router.eth[1].queue queueLength:max 1
attr autoWarmupFilter false
attr interpolationmode sample-hold
attr recordingmode max
attr source "warmup(atomic(constant0(packetPushEnded) + count(packetPushStarted) - count(packetPulled) - count(packetRemoved) - count(packetDropped)))"
attr title "queue length, max"
attr unit pk
scalar TcpVariants.router.eth[1].queue queueLength:timeavg 3.3650504831283e-07
attr autoWarmupFilter false
attr interpolationmode sample-hold
attr recordingmode timeavg
attr source "warmup(atomic(constant0(packetPushEnded) + count(packetPushStarted) - count(packetPulled) - count(packetRemoved) - count(packetDropped)))"
attr title "queue length, timeavg"
attr unit pk
scalar TcpVariants.router.eth[1].queue queueBitLength:last 0
attr autoWarmupFilter false
attr interpolationmode sample-hold
attr recordingmode last
attr source "warmup(atomic(constant0(packetPushEnded) + sum(packetLength(packetPushStarted)) - sum(packetLength(packetPulled)) - sum(packetLength(packetRemoved)) - sum(packetLength(packetDropped))))"
attr title "queue bit length, last"
attr unit b
scalar TcpVariants.router.eth[1].queue queueBitLength:max 496
attr autoWarmupFilter false
attr interpolationmode sample-hold
attr recordingmode max
attr source "warmup(atomic(constant0(packetPushEnded) + sum(packetLength(packetPushStarted)) - sum(packetLength(packetPulled)) - sum(packetLength(packetRemoved)) - sum(packetLength(packetDropped))))"
attr title "queue bit length, max"
attr unit b
scalar TcpVariants.router.eth[1].queue queueBitLength:timeavg 0.00016690650396316
attr autoWarmupFilter false
attr interpolationmode sample-hold
attr recordingmode timeavg
attr source "warmup(atomic(constant0(packetPushEnded) + sum(packetLength(packetPushStarted)) - sum(packetLength(packetPulled)) - sum(packetLength(packetRemoved)) - sum(packetLength(packetDropped))))"
attr title "queue bit length, timeavg"
attr unit b
statistic TcpVariants.router.eth[1].queue queueingTime:histogram
field count 6893
field mean 9.749020745684e-10
field stddev 8.0940360396403e-08
field min 0
field max 6.72e-06
field sum 6.72e-06
field sqrsum 4.51584e-11
attr interpolationmode none
attr recordingmode histogram
attr source queueingTime(packetPulled)
attr title "queueing times"
attr unit s
bin	-inf	0
bin	0	6892
bin	1e-07	0
bin	2e-07	0
bin	3e-07	0
bin	4e-07	0
bin	5e-07	0
bin	6e-07	0
bin	7e-07	0
bin	8e-07	0
bin	9e-07	0
bin	1e-06	0
bin	1.1e-06	0
bin	1.2e-06	0
bin	1.3e-06	0
bin	1.4e-06	0
bin	1.5e-06	0
bin	1.6e-06	0
bin	1.7e-06	0
bin	1.8e-06	0
bin	1.9e-06	0
bin	2e-06	0
bin	2.1e-06	0
bin	2.2e-06	0
bin	2.3e-06	0
bin	2.4e-06	0
bin	2.5e-06	0
bin	2.6e-06	0
bin	2.7e-06	0
bin	2.8e-06	0
bin	2.9e-06	0
bin	3e-06	0
bin	3.1e-06	0
bin	3.2e-06	0
bin	3.3e-06	0
bin	3.4e-06	0
bin	3.5e-06	0
bin	3.6e-06	0
bin	3.7e-06	0
bin	3.8e-06	0
bin	3.9e-06	0
bin	4e-06	0
bin	4.1e-06	0
bin	4.2e-06	0
bin	4.3e-06	0
bin	4.4e-06	0
bin	4.5e-06	0
bin	4.6e-06	0
bin	4.7e-06	0
bin	4.8e-06	0
bin	4.9e-06	0
bin	5e-06	0
bin	5.1e-06	0
bin	5.2e-06	0
bin	5.3e-06	0
bin	5.4e-06	0
bin	5.5e-06	0
bin	5.6e-06	0
bin	5.7e-06	0
bin	5.8e-06	0
bin	5.9e-06	0
bin	6e-06	0
bin	6.1e-06	0
bin	6.2e-06	0
bin	6.3e-06	0
bin	6.4e-06	0
bin	6.5e-06	0
bin	6.6e-06	0
bin	6.7e-06	1
bin	6.8e-06	0
bin	6.9e-06	0
bin	7e-06	0
bin	7.1e-06	0
bin	7.2e-06	0
bin	7.3e-06	0
bin	7.4e-06	0
bin	7.5e-06	0
bin	7.6e-06	0
bin	7.7e-06	0
bin	7.8e-06	0
bin	7.9e-06	0
bin	8e-06	0
bin	8.1e-06	0
bin	8.2e-06	0
bin	8.3e-06	0
bin	8.4e-06	0
scalar TcpVariants.router.eth[1].queue outgoingPackets:count 6893
attr recordingmode count
attr source packetPulled
attr title "outgoing packets, count"
attr unit pk
scalar TcpVariants.router.eth[1].queue outgoingPacketLengths:sum 83661840
attr interpolationmode none
attr recordingmode sum
attr source packetLength(packetPulled)
attr title "outgoing packet lengths, sum"
attr unit b
statistic TcpVariants.router.eth[1].queue outgoingPacketLengths:histogram
field count 6893
field mean 12137.217466996
field stddev 281.49837637037
field min 368
field max 12144
field sum 83661840
field sqrsum 1015968077056
attr interpolationmode none
attr recordingmode histogram
attr source packetLength(packetPulled)
attr title "outgoing packet lengths"
attr unit b
bin	-inf	0
bin	0	0
bin	200	1
bin	400	3
bin	600	0
bin	800	0
bin	1000	0
bin	1200	0
bin	1400	0
bin	1600	0
bin	1800	0
bin	2000	0
bin	2200	0
bin	2400	0
bin	2600	0
bin	2800	0
bin	3000	0
bin	3200	0
bin	3400	0
bin	3600	0
bin	3800	0
bin	4000	0
bin	4200	0
bin	4400	0
bin	4600	0
bin	4800	0
bin	5000	0
bin	5200	0
bin	5400	0
bin	5600	0
bin	5800	0
bin	6000	0
bin	6200	0
bin	6400	0
bin	6600	0
bin	6800	0
bin	7000	0
bin	7200	0
bin	7400	0
bin	7600	0
bin	7800	0
bin	8000	0
bin	8200	0
bin	8400	0
bin	8600	0
bin	8800	0
bin	9000	0
bin	9200	0
bin	9400	0
bin	9600	0
bin	9800	0
bin	10000	0
bin	10200	0
bin	10400	0
bin	10600	0
bin	10800	0
bin	11000	0
bin	11200	0
bin	11400	0
bin	11600	0
bin	11800	0
bin	12000	6889
bin	12200	0
bin	12400	0
bin	12600	0
bin	12800	0
bin	13000	0
bin	13200	0
bin	13400	0
bin	13600	0
bin	13800	0
bin	14000	0
bin	14200	0
bin	14400	0
bin	14600	0
bin	14800	0
bin	15000	0
bin	15200	0
statistic TcpVariants.router.eth[1].queue flowQueueingTime:histogram
field count 0
field mean nan
field stddev nan
field min nan
field max nan
field sum 0
field sqrsum 0
attr interpolationmode none
attr recordingmode histogram
attr source queueingTime(demuxFlow(packetPulled))
attr title "flow queueing times"
attr unit s
bin	-inf	0
bin	0	0
bin	1	0
scalar TcpVariants.router.eth[1].queue incomingPackets:count 6893
attr recordingmode count
attr source packetPushStarted
attr title "incoming packets, count"
attr unit pk
scalar TcpVariants.router.eth[1].queue incomingPacketLengths:sum 83661840
attr interpolationmode none
attr recordingmode sum
attr source packetLength(packetPushStarted)
attr title "incoming packet lengths, sum"
attr unit b
statistic TcpVariants.router.eth[1].queue incomingPacketLengths:histogram
field count 6893
field mean 12137.217466996
field stddev 281.49837637037
field min 368
field max 12144
field sum 83661840
field sqrsum 1015968077056
attr interpolationmode none
attr recordingmode histogram
attr source packetLength(packetPushStarted)
attr title "incoming packet lengths"
attr unit b
bin	-inf	0
bin	0	0
bin	200	1
bin	400	3
bin	600	0
bin	800	0
bin	1000	0
bin	1200	0
bin	1400	0
bin	1600	0
bin	1800	0
bin	2000	0
bin	2200	0
bin	2400	0
bin	2600	0
bin	2800	0
bin	3000	0
bin	3200	0
bin	3400	0
bin	3600	0
bin	3800	0
bin	4000	0
bin	4200	0
bin	4400	0
bin	4600	0
bin	4800	0
bin	5000	0
bin	5200	0
bin	5400	0
bin	5600	0
bin	5800	0
bin	6000	0
bin	6200	0
bin	6400	0
bin	6600	0
bin	6800	0
bin	7000	0
bin	7200	0
bin	7400	0
bin	7600	0
bin	7800	0
bin	8000	0
bin	8200	0
bin	8400	0
bin	8600	0
bin	8800	0
bin	9000	0
bin	9200	0
bin	9400	0
bin	9600	0
bin	9800	0
bin	10000	0
bin	10200	0
bin	10400	0
bin	10600	0
bin	10800	0
bin	11000	0
bin	11200	0
bin	11400	0
bin	11600	0
bin	11800	0
bin	12000	6889
bin	12200	0
bin	12400	0
bin	12600	0
bin	12800	0
bin	13000	0
bin	13200	0
bin	13400	0
bin	13600	0
bin	13800	0
bin	14000	0
bin	14200	0
bin	14400	0
bin	14600	0
bin	14800	0
bin	15000	0
bin	15200	0
scalar TcpVariants.router.eth[1].queue droppedPacketsQueueOverflow:count 0
attr interpolationmode none
attr recordingmode count
attr source packetDropReasonIsQueueOverflow(packetDropped)
attr title "dropped packets: queue overflow, count"
attr unit pk
scalar TcpVariants.router.eth[1].queue droppedPacketLengthsQueueOverflow:sum 0
attr interpolationmode none
attr recordingmode sum
attr source packetLength(packetDropReasonIsQueueOverflow(packetDropped))
attr title "dropped packet lengths: queue overflow, sum"
attr unit b
par TcpVariants.router.eth[1].mac typename "\"inet.linklayer.ethernet.basic.EthernetMac\""
par TcpVariants.router.eth[1].mac interfaceTableModule "\"TcpVariants.router.interfaceTable\""
par TcpVariants.router.eth[1].mac displayStringTextFormat "\"rate: %b\\nsent: %s, rcvd: %r\\nqueue: %q, drop: %d\""
par TcpVariants.router.eth[1].mac sendRawBytes false
par TcpVariants.router.eth[1].mac promiscuous false
par TcpVariants.router.eth[1].mac duplexMode true
par TcpVariants.router.eth[1].mac mtu 1500B
attr unit B
par TcpVariants.router.eth[1].mac fcsMode "\"declared\""
attr enum declared,computed
par TcpVariants.router.eth[1].mac stopOperationExtraTime -1s
attr unit s
par TcpVariants.router.eth[1].mac stopOperationTimeout 2s
attr unit s
scalar TcpVariants.router.eth[1].mac "simulated time" 20
scalar TcpVariants.router.eth[1].mac full-duplex 1
scalar TcpVariants.router.eth[1].mac "frames/sec sent" 344.65
scalar TcpVariants.router.eth[1].mac "frames/sec rcvd" 344.6
scalar TcpVariants.router.eth[1].mac "bits/sec sent" 4183103.2
scalar TcpVariants.router.eth[1].mac "bits/sec rcvd" 176435.2
scalar TcpVariants.router.eth[1].mac "rx channel idle (%)" 99.8015104
scalar TcpVariants.router.eth[1].mac "rx channel utilization (%)" 0.1984896
scalar TcpVariants.router.eth[1].mac txPk:count 6893
attr interpolationmode none
attr recordingmode count
attr source packetSentToLower
attr title "packets transmitted, count"
scalar TcpVariants.router.eth[1].mac txPk:sum(packetBytes) 10457758
attr interpolationmode none
attr recordingmode sum(packetBytes)
attr source packetSentToLower
attr title "packets transmitted, sum(packetBytes)"
scalar TcpVariants.router.eth[1].mac packetReceivedFromUpper:count 6893
attr interpolationmode none
attr recordingmode count
attr source packetReceivedFromUpper
attr title "packet bytes from higher layer, count"
scalar TcpVariants.router.eth[1].mac packetReceivedFromUpper:sum(packetBytes) 10457730
attr interpolationmode none
attr recordingmode sum(packetBytes)
attr source packetReceivedFromUpper
attr title "packet bytes from higher layer, sum(packetBytes)"
scalar TcpVariants.router.eth[1].mac passedUpPk:count 6892
attr interpolationmode none
attr recordingmode count
attr source packetSentToUpper
attr title "packets passed to higher layer, count"
scalar TcpVariants.router.eth[1].mac passedUpPk:sum(packetBytes) 441088
attr interpolationmode none
attr recordingmode sum(packetBytes)
attr source packetSentToUpper
attr title "packets passed to higher layer, sum(packetBytes)"
scalar TcpVariants.router.eth[1].mac packetDropIncorrectlyReceived:count 0
attr interpolationmode none
attr recordingmode count
attr source packetDropReasonIsIncorrectlyReceived(packetDropped)
attr title "packet drop: incorrectly received, count"
scalar TcpVariants.router.eth[1].mac packetDropIncorrectlyReceived:sum(packetBytes) 0
attr interpolationmode none
attr recordingmode sum(packetBytes)
attr source packetDropReasonIsIncorrectlyReceived(packetDropped)
attr title "packet drop: incorrectly received, sum(packetBytes)"
scalar TcpVariants.router.eth[1].mac packetDropInterfaceDown:count 0
attr interpolationmode none
attr recordingmode count
attr source packetDropReasonIsInterfaceDown(packetDropped)
attr title "packet drop: interface down, count"
scalar TcpVariants.router.eth[1].mac packetDropInterfaceDown:sum(packetBytes) 0
attr interpolationmode none
attr recordingmode sum(packetBytes)
attr source packetDropReasonIsInterfaceDown(packetDropped)
attr title "packet drop: interface down, sum(packetBytes)"
scalar TcpVariants.router.eth[1].mac packetDropNotAddressedToUs:count 0
attr interpolationmode none
attr recordingmode count
attr source packetDropReasonIsNotAddressedToUs(packetDropped)
attr title "packet drop: not addressed to us, count"
scalar TcpVariants.router.eth[1].mac packetDropNotAddressedToUs:sum(packetBytes) 0
attr interpolationmode none
attr recordingmode sum(packetBytes)
attr source packetDropReasonIsNotAddressedToUs(packetDropped)
attr title "packet drop: not addressed to us, sum(packetBytes)"
scalar TcpVariants.router.eth[1].mac rxPausePkUnits:count 0
attr interpolationmode none
attr recordingmode count
attr title "pause units received, count"
scalar TcpVariants.router.eth[1].mac rxPausePkUnits:sum 0
attr interpolationmode none
attr recordingmode sum
attr title "pause units received, sum"
scalar TcpVariants.router.eth[1].mac txPausePkUnits:count 0
attr interpolationmode none
attr recordingmode count
attr title "pause units sent, count"
scalar TcpVariants.router.eth[1].mac txPausePkUnits:sum 0
attr interpolationmode none
attr recordingmode sum
attr title "pause units sent, sum"
[...]
par TcpVariants.trafficGen.eth[0] protocol "\"ethernetmac\""
par TcpVariants.trafficGen.eth[0] address "\"0A-AA-00-00-00-06\""
attr mutable ""
par TcpVariants.trafficGen.eth[0] duplexMode true
par TcpVariants.trafficGen.eth[0] csmacdSupport false
par TcpVariants.trafficGen.eth[0] bitrate 0bps
attr unit bps
par TcpVariants.trafficGen.eth[0] fcsMode "\"declared\""
attr enum declared,computed
scalar TcpVariants.trafficGen.eth[0] packetDropInterfaceDown:count 0
attr interpolationmode none
attr recordingmode count
attr source packetDropReasonIsInterfaceDown(packetDropped)
attr title "packet drops: interface down, count"
scalar TcpVariants.trafficGen.eth[0] packetDropInterfaceDown:sum(packetBytes) 0
attr interpolationmode none
attr recordingmode sum(packetBytes)
attr source packetDropReasonIsInterfaceDown(packetDropped)
attr title "packet drops: interface down, sum(packetBytes)"
scalar TcpVariants.trafficGen.eth[0] packetDropNoCarrier:count 0
attr interpolationmode none
attr recordingmode count
attr source packetDropReasonIsNoCarrier(packetDropped)
attr title "packet drops: no carrier, count"
scalar TcpVariants.trafficGen.eth[0] packetDropNoCarrier:sum(packetBytes) 0
attr interpolationmode none
attr recordingmode sum(packetBytes)
attr source packetDropReasonIsNoCarrier(packetDropped)
attr title "packet drops: no carrier, sum(packetBytes)"
par TcpVariants.trafficGen.ipv4.transportIn.channel typename "\"ned.IdealChannel\""
par TcpVariants.trafficGen.ipv4.up.out[0].channel typename "\"ned.IdealChannel\""
par TcpVariants.trafficGen.ipv4.lp.out[2].channel typename "\"ned.IdealChannel\""
par TcpVariants.trafficGen.ipv4.ifIn.channel typename "\"ned.IdealChannel\""
par TcpVariants.trafficGen.ipv4.configurator typename "\"inet.networklayer.configurator.ipv4.Ipv4NodeConfigurator\""
par TcpVariants.trafficGen.ipv4.configurator interfaceTableModule "\"TcpVariants.trafficGen.interfaceTable\""
par TcpVariants.trafficGen.ipv4.configurator routingTableModule "\"TcpVariants.trafficGen.ipv4.routingTable\""
par TcpVariants.trafficGen.ipv4.configurator networkConfiguratorModule "\"configurator\""
par TcpVariants.trafficGen.ipv4.configurator configureRoutingTable true
par TcpVariants.trafficGen.ipv4.routingTable typename "\"inet.networklayer.ipv4.Ipv4RoutingTable\""
par TcpVariants.trafficGen.ipv4.routingTable interfaceTableModule "\"TcpVariants.trafficGen.interfaceTable\""
par TcpVariants.trafficGen.ipv4.routingTable routerId "\"auto\""
par TcpVariants.trafficGen.ipv4.routingTable netmaskRoutes "\"*\""
par TcpVariants.trafficGen.ipv4.routingTable forwarding false
par TcpVariants.trafficGen.ipv4.routingTable multicastForwarding false
par TcpVariants.trafficGen.ipv4.routingTable useAdminDist false
par TcpVariants.trafficGen.ipv4.routingTable routingFile "\"\""
par TcpVariants.trafficGen.ipv4.natTable typename "\"inet.networklayer.ipv4.Ipv4NatTable\""
par TcpVariants.trafficGen.ipv4.natTable networkProtocolModule "\"^.ip\""
par TcpVariants.trafficGen.ipv4.natTable config "<config/> at content:1"
par TcpVariants.trafficGen.ipv4.up typename "\"inet.common.MessageDispatcher\""
par TcpVariants.trafficGen.ipv4.up displayStringTextFormat "\"processed %p pk (%l)\""
par TcpVariants.trafficGen.ipv4.up forwardServiceRegistration true
par TcpVariants.trafficGen.ipv4.up forwardProtocolRegistration true
par TcpVariants.trafficGen.ipv4.igmp typename "\"inet.networklayer.ipv4.Igmpv2\""
par TcpVariants.trafficGen.ipv4.igmp interfaceTableModule "\"TcpVariants.trafficGen.interfaceTable\""
par TcpVariants.trafficGen.ipv4.igmp routingTableModule "\"TcpVariants.trafficGen.ipv4.routingTable\""
par TcpVariants.trafficGen.ipv4.igmp crcMode "\"declared\""
attr enum declared,computed
par TcpVariants.trafficGen.ipv4.igmp enabled true
par TcpVariants.trafficGen.ipv4.igmp robustnessVariable 2
par TcpVariants.trafficGen.ipv4.igmp queryInterval 125s
attr unit s
par TcpVariants.trafficGen.ipv4.igmp queryResponseInterval 10s
attr unit s
par TcpVariants.trafficGen.ipv4.igmp groupMembershipInterval 260s
attr unit s
par TcpVariants.trafficGen.ipv4.igmp otherQuerierPresentInterval 255s
attr unit s
par TcpVariants.trafficGen.ipv4.igmp startupQueryInterval 31.25s
attr unit s
par TcpVariants.trafficGen.ipv4.igmp startupQueryCount 2
par TcpVariants.trafficGen.ipv4.igmp lastMemberQueryInterval 1s
attr unit s
par TcpVariants.trafficGen.ipv4.igmp lastMemberQueryCount 2
par TcpVariants.trafficGen.ipv4.igmp unsolicitedReportInterval 10s
attr unit s
par TcpVariants.trafficGen.ipv4.icmp typename "\"inet.networklayer.ipv4.Icmp\""
par TcpVariants.trafficGen.ipv4.icmp interfaceTableModule "\"TcpVariants.trafficGen.interfaceTable\""
par TcpVariants.trafficGen.ipv4.icmp routingTableModule "\"TcpVariants.trafficGen.ipv4.routingTable\""
par TcpVariants.trafficGen.ipv4.icmp crcMode "\"declared\""
attr enum declared,computed
attr mutable ""
par TcpVariants.trafficGen.ipv4.icmp quoteLength 8B
attr mutable ""
attr unit B
par TcpVariants.trafficGen.ipv4.mp typename "\"inet.common.MessageDispatcher\""
par TcpVariants.trafficGen.ipv4.mp displayStringTextFormat "\"processed %p pk (%l)\""
par TcpVariants.trafficGen.ipv4.mp forwardServiceRegistration true
par TcpVariants.trafficGen.ipv4.mp forwardProtocolRegistration true
par TcpVariants.trafficGen.ipv4.ip typename "\"inet.networklayer.ipv4.Ipv4\""
par TcpVariants.trafficGen.ipv4.ip interfaceTableModule "\"TcpVariants.trafficGen.interfaceTable\""
par TcpVariants.trafficGen.ipv4.ip routingTableModule "\"TcpVariants.trafficGen.ipv4.routingTable\""
par TcpVariants.trafficGen.ipv4.ip arpModule "\"TcpVariants.trafficGen.ipv4.arp\""
par TcpVariants.trafficGen.ipv4.ip icmpModule "\"TcpVariants.trafficGen.ipv4.icmp\""
par TcpVariants.trafficGen.ipv4.ip crcMode "\"declared\""
attr enum declared,computed
par TcpVariants.trafficGen.ipv4.ip timeToLive 32
par TcpVariants.trafficGen.ipv4.ip multicastTimeToLive 32
par TcpVariants.trafficGen.ipv4.ip fragmentTimeout 60s
attr unit s
par TcpVariants.trafficGen.ipv4.ip limitedBroadcast false
par TcpVariants.trafficGen.ipv4.ip directBroadcastInterfaces "\"\""
scalar TcpVariants.trafficGen.ipv4.ip packetDropAddressResolutionFailed:count 0
attr interpolationmode none
attr recordingmode count
attr source packetDropReasonIsAddressResolutionFailed(packetDropped)
attr title "packet drop: address resolution failed, count"
scalar TcpVariants.trafficGen.ipv4.ip packetDropAddressResolutionFailed:sum(packetBytes) 0
attr interpolationmode none
attr recordingmode sum(packetBytes)
attr source packetDropReasonIsAddressResolutionFailed(packetDropped)
attr title "packet drop: address resolution failed, sum(packetBytes)"
scalar TcpVariants.trafficGen.ipv4.ip packetDropHopLimitReached:count 0
attr interpolationmode none
attr recordingmode count
attr source packetDropReasonIsHopLimitReached(packetDropped)
attr title "packet drop: hop limit reached, count"
scalar TcpVariants.trafficGen.ipv4.ip packetDropHopLimitReached:sum(packetBytes) 0
attr interpolationmode none
attr recordingmode sum(packetBytes)
attr source packetDropReasonIsHopLimitReached(packetDropped)
attr title "packet drop: hop limit reached, sum(packetBytes)"
scalar TcpVariants.trafficGen.ipv4.ip packetDropForwardingDisabled:count 0
attr interpolationmode none
attr recordingmode count
attr source packetDropReasonIsForwardingDisabled(packetDropped)
attr title "packet drop: forwarding disabled, count"
scalar TcpVariants.trafficGen.ipv4.ip packetDropForwardingDisabled:sum(packetBytes) 0
attr interpolationmode none
attr recordingmode sum(packetBytes)
attr source packetDropReasonIsForwardingDisabled(packetDropped)
attr title "packet drop: forwarding disabled, sum(packetBytes)"
scalar TcpVariants.trafficGen.ipv4.ip packetDropNoInterfaceFound:count 0
attr interpolationmode none
attr recordingmode count
attr source packetDropReasonIsNoInterfaceFound(packetDropped)
attr title "packet drop: no interface found, count"
scalar TcpVariants.trafficGen.ipv4.ip packetDropNoInterfaceFound:sum(packetBytes) 0
attr interpolationmode none
attr recordingmode sum(packetBytes)
attr source packetDropReasonIsNoInterfaceFound(packetDropped)
attr title "packet drop: no interface found, sum(packetBytes)"
scalar TcpVariants.trafficGen.ipv4.ip packetDropNoRouteFound:count 0
attr interpolationmode none
attr recordingmode count
attr source packetDropReasonIsNoRouteFound(packetDropped)
attr title "packet drop: no route found, count"
scalar TcpVariants.trafficGen.ipv4.ip packetDropNoRouteFound:sum(packetBytes) 0
attr interpolationmode none
attr recordingmode sum(packetBytes)
attr source packetDropReasonIsNoRouteFound(packetDropped)
attr title "packet drop: no route found, sum(packetBytes)"
scalar TcpVariants.trafficGen.ipv4.ip packetDropUndefined:count 0
attr interpolationmode none
attr recordingmode count
attr source packetDropReasonIsUndefined(packetDropped)
attr title "packet drop: undefined, count"
scalar TcpVariants.trafficGen.ipv4.ip packetDropUndefined:sum(packetBytes) 0
attr interpolationmode none
attr recordingmode sum(packetBytes)
attr source packetDropReasonIsUndefined(packetDropped)
attr title "packet drop: undefined, sum(packetBytes)"
par TcpVariants.trafficGen.ipv4.arp typename "\"inet.networklayer.arp.ipv4.Arp\""
par TcpVariants.trafficGen.ipv4.arp interfaceTableModule "\"TcpVariants.trafficGen.interfaceTable\""
par TcpVariants.trafficGen.ipv4.arp routingTableModule "\"TcpVariants.trafficGen.ipv4.routingTable\""
par TcpVariants.trafficGen.ipv4.arp retryTimeout 1s
attr unit s
par TcpVariants.trafficGen.ipv4.arp retryCount 3
par TcpVariants.trafficGen.ipv4.arp cacheTimeout 120s
attr unit s
par TcpVariants.trafficGen.ipv4.arp proxyArpInterfaces "\"\""
scalar TcpVariants.trafficGen.ipv4.arp arpReplySent:count 0
attr recordingmode count
attr source arpReplySent
attr title "ARP replies sent, count"
scalar TcpVariants.trafficGen.ipv4.arp arpReplySent:sum(packetBytes) 0
attr recordingmode sum(packetBytes)
attr source arpReplySent
attr title "ARP replies sent, sum(packetBytes)"
scalar TcpVariants.trafficGen.ipv4.arp arpRequestSent:count 1
attr recordingmode count
attr source arpRequestSent
attr title "ARP request sent, count"
scalar TcpVariants.trafficGen.ipv4.arp arpRequestSent:sum(packetBytes) 28
attr recordingmode sum(packetBytes)
attr source arpRequestSent
attr title "ARP request sent, sum(packetBytes)"
scalar TcpVariants.trafficGen.ipv4.arp arpResolutionFailed:count 0
attr recordingmode count
attr title "ARP failed resolutions, count"
scalar TcpVariants.trafficGen.ipv4.arp arpResolutionCompleted:count 1
attr recordingmode count
attr title "ARP completed resolutions, count"
scalar TcpVariants.trafficGen.ipv4.arp arpResolutionInitiated:count 1
attr recordingmode count
attr title "ARP initiated resolutions, count"
par TcpVariants.trafficGen.ipv4.lp typename "\"inet.common.MessageDispatcher\""
par TcpVariants.trafficGen.ipv4.lp displayStringTextFormat "\"processed %p pk (%l)\""
par TcpVariants.trafficGen.ipv4.lp forwardServiceRegistration true
par TcpVariants.trafficGen.ipv4.lp forwardProtocolRegistration true
par TcpVariants.trafficGen.ipv4 typename "\"inet.networklayer.ipv4.Ipv4NetworkLayer\""
par TcpVariants.trafficGen.ipv4 forwarding false
par TcpVariants.trafficGen.ipv4 multicastForwarding false
par TcpVariants.trafficGen.ipv4 interfaceTableModule "\"TcpVariants.trafficGen.interfaceTable\""
par TcpVariants.trafficGen.ipv4 displayStringTextFormat "\"%i\""
par TcpVariants.trafficGen.nl typename "\"inet.common.MessageDispatcher\""
par TcpVariants.trafficGen.nl displayStringTextFormat "\"processed %p pk (%l)\""
par TcpVariants.trafficGen.nl forwardServiceRegistration true
par TcpVariants.trafficGen.nl forwardProtocolRegistration true
par TcpVariants.trafficGen.udp typename "\"inet.transportlayer.udp.Udp\""
par TcpVariants.trafficGen.udp interfaceTableModule "\"TcpVariants.trafficGen.interfaceTable\""
par TcpVariants.trafficGen.udp icmpModule "\"^.ipv4.icmp\""
par TcpVariants.trafficGen.udp icmpv6Module "\"^.ipv6.icmpv6\""
par TcpVariants.trafficGen.udp crcMode "\"declared\""
attr enum disabled,declared,computed
par TcpVariants.trafficGen.udp defaultMulticastLoop true
scalar TcpVariants.trafficGen.udp packetReceived:count 0
attr interpolationmode none
attr recordingmode count
attr source packetReceived
attr title "packets received, count"
scalar TcpVariants.trafficGen.udp packetReceived:sum(packetBytes) 0
attr interpolationmode none
attr recordingmode sum(packetBytes)
attr source packetReceived
attr title "packets received, sum(packetBytes)"
scalar TcpVariants.trafficGen.udp packetSent:count 0
attr interpolationmode none
attr recordingmode count
attr source packetSent
attr title "packets sent, count"
scalar TcpVariants.trafficGen.udp packetSent:sum(packetBytes) 0
attr interpolationmode none
attr recordingmode sum(packetBytes)
attr source packetSent
attr title "packets sent, sum(packetBytes)"
scalar TcpVariants.trafficGen.udp passedUpPk:count 0
attr interpolationmode none
attr recordingmode count
attr source packetSentToUpper
attr title "packets passed up, count"
scalar TcpVariants.trafficGen.udp droppedPkWrongPort:count 0
attr interpolationmode none
attr recordingmode count
attr source packetDropReasonIsNoPortFound(packetDropped)
attr title "packets dropped (wrong port), count"
scalar TcpVariants.trafficGen.udp droppedPkBadChecksum:count 0
attr interpolationmode none
attr recordingmode count
attr source packetDropReasonIsIncorrectlyReceived(packetDropped)
attr title "packets dropped (checksum error), count"
par TcpVariants.trafficGen.tcp typename "\"inet.transportlayer.tcp.Tcp\""
par TcpVariants.trafficGen.tcp crcMode "\"declared\""
attr enum declared,computed
par TcpVariants.trafficGen.tcp advertisedWindow 20440
par TcpVariants.trafficGen.tcp delayedAcksEnabled false
par TcpVariants.trafficGen.tcp nagleEnabled true
par TcpVariants.trafficGen.tcp limitedTransmitEnabled false
par TcpVariants.trafficGen.tcp increasedIWEnabled false
par TcpVariants.trafficGen.tcp sackSupport false
par TcpVariants.trafficGen.tcp windowScalingSupport false
par TcpVariants.trafficGen.tcp windowScalingFactor -1
par TcpVariants.trafficGen.tcp timestampSupport false
par TcpVariants.trafficGen.tcp mss 1460
par TcpVariants.trafficGen.tcp msl 120s
attr unit s
par TcpVariants.trafficGen.tcp tcpAlgorithmClass "\"TcpReno\""
par TcpVariants.trafficGen.tcp useDataNotification false
par TcpVariants.trafficGen.tcp dupthresh 3
par TcpVariants.trafficGen.tcp initialSsthresh 4294967295
par TcpVariants.trafficGen.tcp stopOperationExtraTime 0s
attr unit s
par TcpVariants.trafficGen.tcp stopOperationTimeout 2s
attr unit s
par TcpVariants.trafficGen.tcp ecnWillingness false
par TcpVariants.trafficGen.tcp dctcpGamma 0.0625
par TcpVariants.trafficGen.tn typename "\"inet.common.MessageDispatcher\""
par TcpVariants.trafficGen.tn displayStringTextFormat "\"processed %p pk (%l)\""
par TcpVariants.trafficGen.tn forwardServiceRegistration true
par TcpVariants.trafficGen.tn forwardProtocolRegistration true
par TcpVariants.trafficGen.app[0] typename "\"inet.applications.tcpapp.TcpSessionApp\""
par TcpVariants.trafficGen.app[0] localAddress "\"\""
par TcpVariants.trafficGen.app[0] localPort 2000
par TcpVariants.trafficGen.app[0] active true
par TcpVariants.trafficGen.app[0] connectAddress "\"receiver\""
par TcpVariants.trafficGen.app[0] connectPort 2000
par TcpVariants.trafficGen.app[0] dataTransferMode "\"bytecount\""
attr enum bytecount,object,bytestream
par TcpVariants.trafficGen.app[0] tOpen 0s
attr unit s
par TcpVariants.trafficGen.app[0] tSend 0s
attr unit s
par TcpVariants.trafficGen.app[0] sendBytes 52428800B
attr unit B
par TcpVariants.trafficGen.app[0] sendScript "\"\""
par TcpVariants.trafficGen.app[0] tClose -1s
attr unit s
par TcpVariants.trafficGen.app[0] timeToLive -1
par TcpVariants.trafficGen.app[0] dscp -1
par TcpVariants.trafficGen.app[0] tos -1
par TcpVariants.trafficGen.app[0] stopOperationExtraTime -1s
attr unit s
par TcpVariants.trafficGen.app[0] stopOperationTimeout 2s
attr unit s
scalar TcpVariants.trafficGen.app[0] bytesRcvd 0
scalar TcpVariants.trafficGen.app[0] bytesSent 0
scalar TcpVariants.trafficGen.app[0] packetReceived:count 0
attr interpolationmode none
attr recordingmode count
attr source packetReceived
attr title "packets received, count"
scalar TcpVariants.trafficGen.app[0] packetReceived:sum(packetBytes) 0
attr interpolationmode none
attr recordingmode sum(packetBytes)
attr source packetReceived
attr title "packets received, sum(packetBytes)"
statistic TcpVariants.trafficGen.app[0] endToEndDelay:histogram
field count 0
field mean nan
field stddev nan
field min nan
field max nan
field sum 0
field sqrsum 0
attr interpolationmode none
attr recordingmode histogram
attr source dataAge(packetReceived)
attr title "end-to-end delay"
attr unit s
bin	-inf	0
bin	0	0
bin	1	0
statistic TcpVariants.trafficGen.app[0] endToEndDelay:weightedHistogram
field count 0
field mean nan
field stddev nan
field min nan
field max nan
field weights 0
field weightedSum 0
field sqrSumWeights 0
field weightedSqrSum 0
attr interpolationmode none
attr recordingmode weightedHistogram
attr source dataAge(packetReceived)
attr title "end-to-end delay, weightedHistogram"
attr unit s
bin	-inf	0
bin	0	0
bin	1	0
scalar TcpVariants.trafficGen.app[0] packetSent:count 0
attr interpolationmode none
attr recordingmode count
attr source packetSent
attr title "packets sent, count"
scalar TcpVariants.trafficGen.app[0] packetSent:sum(packetBytes) 0
attr interpolationmode none
attr recordingmode sum(packetBytes)
attr source packetSent
attr title "packets sent, sum(packetBytes)"
par TcpVariants.trafficGen.at typename "\"inet.common.MessageDispatcher\""
par TcpVariants.trafficGen.at displayStringTextFormat "\"processed %p pk (%l)\""
par TcpVariants.trafficGen.at forwardServiceRegistration true
par TcpVariants.trafficGen.at forwardProtocolRegistration true
par TcpVariants.trafficGen typename "\"inet.node.inet.StandardHost\""
par TcpVariants.trafficGen hasStatus false
par TcpVariants.trafficGen osgModel "\"\""
par TcpVariants.trafficGen osgModelColor "\"\""
par TcpVariants.trafficGen canvasImage "\"\""
par TcpVariants.trafficGen canvasImageColor "\"\""
par TcpVariants.trafficGen recordPcap false
par TcpVariants.trafficGen numPcapRecorders 0
par TcpVariants.trafficGen numLoInterfaces 1
par TcpVariants.trafficGen numWlanInterfaces 0
par TcpVariants.trafficGen numEthInterfaces 0
par TcpVariants.trafficGen numPppInterfaces 0
par TcpVariants.trafficGen numTunInterfaces 0
par TcpVariants.trafficGen numVirtInterfaces 0
par TcpVariants.trafficGen fcsMode "\"declared\""
attr enum declared,computed
par TcpVariants.trafficGen hasIpv4 true
par TcpVariants.trafficGen hasIpv6 false
par TcpVariants.trafficGen hasGn false
par TcpVariants.trafficGen forwarding false
par TcpVariants.trafficGen multicastForwarding false
par TcpVariants.trafficGen hasUdp true
par TcpVariants.trafficGen hasTcp true
par TcpVariants.trafficGen hasSctp false
par TcpVariants.trafficGen numApps 1
par TcpVariants typename "\"tcp_con_control_analysis.TcpVariants\""
scalar TcpVariants packetLoss:sum 0
attr recordingmode sum
attr title "Packet Loss Rate, sum"
attr unit packets
scalar TcpVariants endToEndDelay:avg nan
attr recordingmode avg
attr title "End-to-End Delay, avg"
attr unit s
scalar TcpVariants throughput:avg nan
attr recordingmode avg
attr title "TCP Throughput, avg"
attr unit bps
scalar TcpVariants rtt:avg 0.040255693603239
attr recordingmode avg
attr title "Round-Trip Time, avg"
attr unit s
scalar TcpVariants cwnd:avg 5020940
attr recordingmode avg
attr title "Congestion Window Size, avg"
attr unit bytes

